<?xml version="1.0" encoding="UTF-8"?>

<!-- generated on Fri Sep 16 13:33:23 2016 by SUMO duarouter Version 0.27.1
<?xml version="1.0" encoding="UTF-8"?>

<configuration xmlns:xsi="http://www.w3.org/2001/XMLSchema-instance" xsi:noNamespaceSchemaLocation="http://sumo.dlr.de/xsd/duarouterConfiguration.xsd">

    <input>
        <net-file value="MK-map-tl.net.xml"/>
        <trip-files value="MK-map.trips.xml"/>
    </input>

    <output>
        <output-file value="MK-map.rou.xml"/>
    </output>

    <processing>
        <ignore-errors value="true"/>
    </processing>

</configuration>
-->

<routes xmlns:xsi="http://www.w3.org/2001/XMLSchema-instance" xsi:noNamespaceSchemaLocation="http://sumo.dlr.de/xsd/routes_file.xsd">
    <vehicle id="2" depart="2.00">
        <route edges="102443799#0 102443799#1 102443799#2 102443799#3 102443799#4 102443799#5 102443799#6 102443799#7 102443799#8 246483031 101317729#0 101317729#1"/>
    </vehicle>
    <vehicle id="4" depart="4.00">
        <route edges="101183503 100507099#1 250787626#1 250787626#2 250787626#3 263840206#0 263840206#1 263840206#2 250788646#0 250788646#1 250788646#2 250788646#3 250788646#4 246483350#0 246483350#1 246483350#2 246483350#3 101166556 251337837#0 251337837#1 311890778#0 311890778#1 106436298#0 106436298#1"/>
    </vehicle>
    <vehicle id="7" depart="7.00">
        <route edges="311890775#1 311890775#2 311890775#3 311890775#4 441107643#0 441107643#1 441107643#2 441107643#3 246483031 101317729#0 101317729#1 101317729#2 101317729#3 101317729#4 263840206#0 263840206#1 263840206#2 250788646#0 250788646#1 250788646#2 250788646#3 250788646#4 246483350#0 246483350#1 246483350#2 246483350#3 101166556 251337837#0 251337837#1 311890778#0"/>
    </vehicle>
    <vehicle id="12" depart="12.00">
        <route edges="102443799#0 102443799#1 102443799#2 102443799#3 102443799#4 102443799#5 102443799#6 102443799#7 102443799#8 246483031 101317729#0 101317729#1 101317729#2 101317729#3 101317729#4 263840206#0 263840206#1 263840206#2 441107658#0 441107658#1 441107658#2 441107658#3 441107658#4 441107643#0 441107643#1"/>
    </vehicle>
    <vehicle id="13" depart="13.00">
        <route edges="102441821#2 102441821#3 102441821#4 246481869#0"/>
    </vehicle>
    <vehicle id="16" depart="16.00">
        <route edges="102441821#4 150771591#0 150771591#1 150771591#2 150771591#3 311890781#0 311890781#1 311890781#2 101183524#0 101183524#1 441107658#2"/>
    </vehicle>

    <vehicle id="19" depart="19.00">
        <route edges="150771643#0 150771643#1 150771643#2 250788646#0 250788646#1 250788646#2 250788646#3 250788646#4 246483350#0 246483350#1 246483350#2 246483350#3 101166556 251337837#0 251337837#1 311890778#0 311890778#1 106436298#0 106436298#1"/>
    </vehicle>

    <vehicle id="21" depart="21.00">
        <route edges="102554241#1 102554241#2 102554241#3 246482271#0 246482271#1 246482271#2 246482271#3 150771591#0 150771591#1 150771591#2 150771591#3 311890775#0 311890775#1 311890775#2 311890775#3 311890775#4 441107643#0 441107643#1 441107643#2 441107643#3 246483031 101317729#0 101317729#1 101317729#2 101317729#3 101317729#4 263840206#0 263840206#1 263840206#2 441107658#0 441107658#1"/>
    </vehicle>
    <vehicle id="26" depart="26.00">
        <route edges="150792162#0 150792162#1 150792162#2 150792162#3 311890775#1 311890775#2 311890775#3 311890775#4 263839971#0 263839971#1 263839971#2 263839971#3 263839971#4 263839971#5 263839971#6"/>
    </vehicle>

    <vehicle id="33" depart="33.00">
        <route edges="311890781#2 101183524#0 101183524#1 441107658#2 441107658#3 441107658#4 263839971#0 263839971#1 263839971#2 263839971#3 263839971#4 263839971#5 263839971#6 263839971#7"/>
    </vehicle>
    <vehicle id="39" depart="39.00">
        <route edges="100507099#0 100507099#1 250787626#1 250787626#2 250787626#3 263840206#0 263840206#1 263840206#2 441107658#0 441107658#1 441107658#2 441107658#3 441107658#4 441107643#0 441107643#1 441107643#2 441107643#3 99517996#0 99517996#1"/>
    </vehicle>
    <vehicle id="43" depart="43.00">
        <route edges="101176346#0 101176346#1 101176346#2 263840206#0 263840206#1 263840206#2 250788646#0 250788646#1 250788646#2 250788646#3 250788646#4 246483350#0 246483350#1 246483350#2 246483350#3 101166556 251338678#0 251338678#1 101183511 101183518#0 101183518#1 101183518#2 102554241#0 102554241#1 102554241#2 102554241#3 246482271#0 246482271#1 246482271#2 246482271#3 150771591#0 150771591#1 150771591#2 150771591#3 311890775#0 311890775#1"/>
    </vehicle>

    <vehicle id="44" depart="44.00">
        <route edges="150792162#0 150792162#1 150792162#2 150792162#3 311890775#1 311890775#2 311890775#3 311890775#4 441107643#0 441107643#1 441107643#2 441107643#3 246483031 101317729#0 101317729#1 101317729#2 101317729#3 101317729#4 263840206#0 263840206#1 263840206#2 250788646#0 250788646#1 250788646#2 250788646#3 250788646#4 246483350#0 246483350#1 246483350#2 246483350#3 101166556 251338678#0 251338678#1 101183511 101183518#0 101183518#1 101183518#2 102554241#0 102554241#1"/>
    </vehicle>
    <vehicle id="45" depart="45.00">
        <route edges="102441821#0 102441821#1 102441821#2 102441821#3 102441821#4 150771591#0 150771591#1 150771591#2 150771591#3 311890781#0 311890781#1 311890781#2 311890781#3 311890781#4 311890781#5 246483350#1 246483350#2 246483350#3 101166556 251337837#0 251337837#1 311890778#0 311890778#1 106436298#0 106436298#1"/>
    </vehicle>

    <vehicle id="46" depart="46.00">
        <route edges="150792162#0 150792162#1 150792162#2 150792162#3 311890775#1 311890775#2 311890775#3 311890775#4 263839971#0 263839971#1 263839971#2 263839971#3 263839971#4"/>
    </vehicle>
    <vehicle id="48" depart="48.00">
        <route edges="150792162#0 150792162#1 150792162#2 150792162#3 311890775#1 311890775#2 311890775#3 311890775#4 441107643#0 441107643#1 441107643#2 441107643#3 246483031 101317729#0 101317729#1 101317729#2 101317729#3 101317729#4 263840206#0 263840206#1 263840206#2 250788646#0 250788646#1 250788646#2 250788646#3 250788646#4 101166561#0"/>
    </vehicle>
    <vehicle id="51" depart="51.00">
        <route edges="102441821#2"/>
    </vehicle>
    <vehicle id="57" depart="57.00">
        <route edges="101176346#0 101176346#1 101176346#2 263840206#0 263840206#1 263840206#2 250788646#0 250788646#1 250788646#2 250788646#3 250788646#4 246483350#0 246483350#1 246483350#2 246483350#3 101166556 251338678#0 251338678#1 101183511 101183518#0 101183518#1 101183518#2 102554241#0 102554241#1 102554241#2 102554241#3 246482271#0 246482271#1 246482271#2 246482271#3 246481869#0"/>
    </vehicle>
    <vehicle id="59" depart="59.00">
        <route edges="101317729#1 101317729#2 101317729#3 101317729#4 263840206#0 263840206#1 263840206#2 441107658#0 441107658#1 441107658#2 441107658#3 441107658#4 263839971#0 263839971#1 263839971#2 263839971#3"/>
    </vehicle>
    <vehicle id="60" depart="60.00">
        <route edges="441107643#1 441107643#2 441107643#3 246483031 101317729#0 101317729#1 101317729#2 101317729#3 101317729#4 263840206#0 263840206#1 263840206#2 441107658#0 441107658#1 441107658#2 441107658#3 441107658#4 263839971#0 263839971#1 263839971#2 263839971#3 263839971#4 263839971#5 263839971#6 263839971#7"/>
    </vehicle>
    <vehicle id="63" depart="63.00">
        <route edges="441107658#2 441107658#3 441107658#4 263839971#0 263839971#1 263839971#2 263839971#3 263839971#4 263839971#5 263839971#6 263839971#7"/>
    </vehicle>
    <vehicle id="64" depart="64.00">
        <route edges="101183525#1"/>
    </vehicle>
    <vehicle id="65" depart="65.00">
        <route edges="263840206#0 263840206#1 263840206#2 441107658#0 441107658#1 441107658#2 441107658#3 441107658#4 263839971#0 263839971#1 263839971#2 263839971#3 263839971#4 263839971#5"/>
    </vehicle>
    <vehicle id="70" depart="70.00">
        <route edges="150792162#1 150792162#2 150792162#3 311890775#1 311890775#2 311890775#3 311890775#4 263839971#0 263839971#1 263839971#2 263839971#3"/>
    </vehicle>
    <vehicle id="71" depart="71.00">
        <route edges="101183524#0 101183524#1 441107658#2 441107658#3 441107658#4 441107643#0 441107643#1 441107643#2"/>
    </vehicle>

    <vehicle id="75" depart="75.00">
        <route edges="251338678#1 101183511 101183518#0 101183518#1 101183518#2 102554241#0 102554241#1 102554241#2 102554241#3 246482271#0 246482271#1 246482271#2 246482271#3 150771591#0 150771591#1 150771591#2 150771591#3 311890781#0 311890781#1 311890781#2 101183524#0 101183524#1 441107658#2"/>
    </vehicle>

    <vehicle id="76" depart="76.00">
        <route edges="246482271#0 246482271#1 246482271#2 246482271#3 150771591#0 150771591#1 150771591#2 150771591#3 311890775#0 311890775#1 311890775#2 311890775#3 311890775#4 441107643#0 441107643#1 441107643#2 441107643#3 246483031 101317729#0 101317729#1 101317729#2 101317729#3 101317729#4 263840206#0"/>
    </vehicle>

    <vehicle id="77" depart="77.00">
        <route edges="311890781#2 311890781#3 311890781#4 311890781#5 246483350#1 246483350#2 246483350#3 101166556 251338678#0 251338678#1 101183511 101183518#0 101183518#1 101183518#2 102554241#0 102554241#1 102554241#2 66348958#0 66348958#1"/>
    </vehicle>

    <vehicle id="79" depart="79.00">
        <route edges="150792162#0 150792162#1 150792162#2 150792162#3 311890775#1 311890775#2 311890775#3 311890775#4 441107643#0 441107643#1 441107643#2 441107643#3 246483031 101317729#0 101317729#1 101317729#2 101317729#3 101317729#4 263840206#0 263840206#1 263840206#2 250788646#0 250788646#1 250788646#2 250788646#3 250788646#4 246483350#0 246483350#1 246483350#2 246483350#3 101166556 251337837#0 251337837#1 311890778#0 311890778#1 106436298#0 106436298#1"/>
    </vehicle>
    <vehicle id="83" depart="83.00">
        <route edges="100507099#1 250787626#1 250787626#2 250787626#3 263840206#0 263840206#1 263840206#2 250788646#0 250788646#1 250788646#2 250788646#3 250788646#4 246483350#0 246483350#1 246483350#2 246483350#3 101166556 251337837#0 251337837#1 311890778#0"/>
    </vehicle>
    <vehicle id="85" depart="85.00">
        <route edges="100507099#1 250787626#1 250787626#2 250787626#3 263840206#0 263840206#1 263840206#2 250788646#0 250788646#1 250788646#2 250788646#3 250788646#4 246483350#0 246483350#1 246483350#2 246483350#3 101166556 251338678#0 251338678#1 101183511 101183518#0 101183518#1 101183518#2 102554241#0 102554241#1 102554241#2 102554241#3 246482271#0 246482271#1 246482271#2 246482271#3 150771591#0 150771591#1 150771591#2 150771591#3 311890781#0 311890781#1 311890781#2"/>
    </vehicle>
    <vehicle id="86" depart="86.00">
        <route edges="150771643#0 150771643#1 150771643#2 441107658#0 441107658#1 441107658#2 441107658#3 441107658#4 263839971#0 263839971#1 263839971#2 263839971#3 263839971#4 263839971#5 263839971#6 263839971#7"/>
    </vehicle>
    <vehicle id="88" depart="88.00">
        <route edges="150792162#0 150792162#1 150792162#2 150792162#3 311890775#1 311890775#2 311890775#3 311890775#4 441107643#0 441107643#1 441107643#2 441107643#3 246483031 101317729#0 101317729#1 101317729#2 101317729#3 101317729#4 263840206#0 263840206#1 263840206#2 250788646#0 250788646#1 250788646#2 250788646#3 250788646#4 246483350#0 246483350#1 246483350#2 246483350#3 101166556 251338678#0 251338678#1 101183511 101183518#0 101183518#1 101183518#2 102554241#0 102554241#1 102554241#2 102554241#3 246482271#0 246482271#1 246482271#2 246482271#3 150771591#0 150771591#1"/>
    </vehicle>
    <vehicle id="90" depart="90.00">
        <route edges="311890781#2 101183524#0 101183517#1"/>
    </vehicle>
    <vehicle id="92" depart="92.00">
        <route edges="251337837#1 311890778#0 311890778#1 106436298#0 106436298#1"/>
    </vehicle>
    <vehicle id="93" depart="93.00">
        <route edges="102441821#2 102441821#3 102441821#4 150771591#0 150771591#1 150771591#2 150771591#3 311890781#0 311890781#1 311890781#2 311890781#3 311890781#4 311890781#5 246483350#1 246483350#2 246483350#3 101166556 251337837#0 251337837#1 311890778#0 311890778#1 106436298#0 106436298#1 106436298#2"/>
    </vehicle>
    <vehicle id="95" depart="95.00">
        <route edges="150771643#0 150771643#1 150771643#2 441107658#0 441107658#1 441107658#2 441107658#3 441107658#4 263839971#0 263839971#1 263839971#2 263839971#3 263839971#4 263839971#5 263839971#6 263839971#7"/>
    </vehicle>

    <vehicle id="100" depart="100.00">
        <route edges="150771591#1 150771591#2 150771591#3 311890775#0 311890775#1 311890775#2 311890775#3 311890775#4 263839971#0 263839971#1 263839971#2 263839971#3"/>
    </vehicle>
    <vehicle id="102" depart="102.00">
        <route edges="102443799#6 102443799#7 102443799#8 246483031 101317729#0 101317729#1 101183503 100507099#1"/>
    </vehicle>
    <vehicle id="104" depart="104.00">
        <route edges="150792162#0 150792162#1 150792162#2 150792162#3 311890775#1 311890775#2 311890775#3 311890775#4 441107643#0 441107643#1 441107643#2 441107643#3 246483031 101317729#0 101317729#1 101317729#2 101317729#3 101317729#4 263840206#0 263840206#1 263840206#2 250788646#0 250788646#1 250788646#2 250788646#3 250788646#4 246483350#0 246483350#1 246483350#2 246483350#3 101166556 251338678#0 251338678#1 101183511 101183518#0 101183518#1 101183518#2 102554241#0"/>
    </vehicle>

    <vehicle id="105" depart="105.00">
        <route edges="263839971#1 263839971#2 263839971#3"/>
    </vehicle>

    <vehicle id="106" depart="106.00">
        <route edges="101183517#0 101183524#1 441107658#2 441107658#3 441107658#4 441107643#0 441107643#1 441107643#2 441107643#3 246483031 101317729#0 101317729#1 101317729#2 101317729#3 101317729#4 263840206#0 263840206#1 263840206#2 250788646#0 250788646#1 250788646#2 250788646#3 250788646#4 246483350#0 246483350#1 246483350#2 246483350#3 101166556 251337837#0 251337837#1 101183499#0 101183499#1 435421056"/>
    </vehicle>
    <vehicle id="109" depart="109.00">
        <route edges="101183517#0 101183524#1 441107658#2 441107658#3 441107658#4 263839971#0 263839971#1 263839971#2 263839971#3 263839971#4 263839971#5 263839971#6 263839971#7"/>
    </vehicle>

    <vehicle id="111" depart="111.00">
        <route edges="150792162#0 150792162#1 150792162#2 150792162#3 311890775#1 311890775#2 311890775#3 311890775#4 441107643#0 441107643#1 441107643#2 441107643#3 246483031 101317729#0 101317729#1 101317729#2 101317729#3 101317729#4 263840206#0 263840206#1 263840206#2 441107658#0 441107658#1 441107658#2"/>
    </vehicle>
    <vehicle id="113" depart="113.00">
        <route edges="101176346#0 101176346#1 101176346#2 263840206#0 263840206#1 263840206#2 441107658#0 441107658#1 441107658#2 441107658#3 441107658#4 263839971#0 263839971#1 263839971#2 263839971#3"/>
    </vehicle>

    <vehicle id="115" depart="115.00">
        <route edges="101183532#0 101183532#1 101183532#2 101183532#3 246482271#0 246482271#1 246482271#2 246482271#3 150771591#0 150771591#1 150771591#2 150771591#3 311890775#0 311890775#1 311890775#2 311890775#3 311890775#4 263839971#0 263839971#1"/>
    </vehicle>
    <vehicle id="118" depart="118.00">
        <route edges="101183532#3 246482271#0 246482271#1 246482271#2 246482271#3 150771591#0 150771591#1 150771591#2 150771591#3 311890775#0 311890775#1 311890775#2 311890775#3 311890775#4 263839971#0 263839971#1 263839971#2 263839971#3"/>
    </vehicle>

    <vehicle id="120" depart="120.00">
        <route edges="102554241#1 102554241#2 102554241#3 246482271#0 246482271#1 246482271#2 246482271#3 150771591#0 150771591#1 150771591#2 150771591#3 311890781#0 311890781#1 311890781#2"/>
    </vehicle>
    <vehicle id="123" depart="123.00">
        <route edges="246482271#0 246482271#1 246482271#2 246482271#3 150771591#0 150771591#1 150771591#2 150771591#3 311890781#0 311890781#1 311890781#2 311890781#3 311890781#4 311890781#5 246483350#1 246483350#2 246483350#3 101166556 251337837#0 251337837#1"/>
    </vehicle>
    <vehicle id="126" depart="126.00">
        <route edges="150792162#0 150792162#1 150792162#2 150792162#3 311890775#1 311890775#2 311890775#3 311890775#4 263839971#0 263839971#1 263839971#2 263839971#3 263839971#4 263839971#5 263839971#6 263839971#7"/>
    </vehicle>
    <vehicle id="129" depart="129.00">
        <route edges="101183525#1 101183525#2 101183525#3 101183518#0 101183518#1 101183518#2 102554241#0 102554241#1 102554241#2 102554241#3 246482271#0 246482271#1 246482271#2 246482271#3 150771591#0 150771591#1 150771591#2 150771591#3 311890775#0 311890775#1 311890775#2 311890775#3 311890775#4 441107643#0 441107643#1 441107643#2 441107643#3 99517996#0 99517996#1"/>
    </vehicle>

    <vehicle id="133" depart="133.00">
        <route edges="101166553#0 101166553#1 101166553#2 246483350#0 246483350#1 246483350#2 246483350#3 101166556 251338678#0 251338678#1 101183511 101183518#0 101183518#1 101183518#2 102554241#0 102554241#1 102554241#2 102554241#3 246482271#0 246482271#1 246482271#2 246482271#3 150771591#0 150771591#1 150771591#2 150771591#3 311890775#0 311890775#1 311890775#2 311890775#3 311890775#4 263839971#0 263839971#1 263839971#2"/>
    </vehicle>
    <vehicle id="136" depart="136.00">
        <route edges="102441821#2 102441821#3 102441821#4 150771591#0 150771591#1 150771591#2 150771591#3 311890775#0 311890775#1 311890775#2 311890775#3 311890775#4 441107643#0 441107643#1 441107643#2 441107643#3 246483031 101317729#0 101317729#1 101317729#2 101317729#3 101317729#4 263840206#0 263840206#1 263840206#2 441107658#0 441107658#1"/>
    </vehicle>
    <vehicle id="139" depart="139.00">
        <route edges="102441821#2 102441821#3 102441821#4 150771591#0 150771591#1 150771591#2 150771591#3 311890781#0 311890781#1 311890781#2 101183524#0 101183517#1"/>
    </vehicle>
    <vehicle id="140" depart="140.00">
        <route edges="150792162#0 150792162#1 150792162#2 150792162#3 311890775#1 311890775#2 311890775#3 311890775#4 441107643#0 441107643#1 441107643#2 441107643#3 246483031 101317729#0 101317729#1 101317729#2 101317729#3 101317729#4 263840206#0 263840206#1 263840206#2 250788646#0 250788646#1 250788646#2 250788646#3 250788646#4 246483350#0 246483350#1 246483350#2 246483350#3 101166556 251337837#0 251337837#1"/>
    </vehicle>
    <vehicle id="143" depart="143.00">
        <route edges="102443799#4 102443799#5 102443799#6 102443799#7 102443799#8 246483031 101317729#0 101317729#1 101317729#2 101317729#3 101317729#4 263840206#0 263840206#1 263840206#2 250788646#0 250788646#1 250788646#2 250788646#3 250788646#4 246483350#0 246483350#1 246483350#2 246483350#3 101166556 251337837#0 251337837#1 101183499#0 101183499#1 435421056"/>
    </vehicle>

    <vehicle id="146" depart="146.00">
        <route edges="101183532#3 246482271#0 246482271#1 246482271#2 246482271#3 150771591#0 150771591#1 150771591#2 150771591#3 311890775#0 311890775#1 311890775#2 311890775#3 311890775#4 263839971#0 263839971#1 263839971#2 263839971#3"/>
    </vehicle>
    <vehicle id="147" depart="147.00">
        <route edges="150792162#0 150792162#1 150792162#2 150792162#3 311890775#1 311890775#2 311890775#3 311890775#4 441107643#0 441107643#1 441107643#2 441107643#3 246483031 101317729#0 101317729#1 101317729#2 101317729#3 101317729#4 263840206#0 263840206#1 263840206#2 250788646#0 250788646#1 250788646#2 250788646#3 250788646#4 101166561#0 101166561#1 101166561#2 101166561#3 279592046#0 279592046#1"/>
    </vehicle>
    <vehicle id="150" depart="150.00">
        <route edges="311890781#3 311890781#4 311890781#5 246483350#1 246483350#2 246483350#3 101166556 251338678#0 251338678#1 101183511 101183518#0 101183518#1 101183518#2 102554241#0 102554241#1 102554241#2 102554241#3 246482271#0 246482271#1 246482271#2 246482271#3 150771591#0 150771591#1 150771591#2 150771591#3 311890775#0 311890775#1 311890775#2 311890775#3 311890775#4 263839971#0 263839971#1 263839971#2 263839971#3 263839971#4"/>
    </vehicle>
    <vehicle id="151" depart="151.00">
        <route edges="101183525#1 101183525#2 101183525#3 101183518#0 101183518#1 101183518#2 102554241#0 102554241#1 102554241#2 66348958#0 66348958#1"/>
    </vehicle>
    <vehicle id="152" depart="152.00">
        <route edges="150792162#0 150792162#1 150792162#2 150792162#3 311890775#1 311890775#2 311890775#3 311890775#4 441107643#0 441107643#1 441107643#2 441107643#3 246483031 101317729#0 101317729#1 101317729#2 101317729#3 101317729#4 263840206#0 263840206#1 263840206#2 250788646#0 250788646#1 250788646#2 250788646#3 250788646#4 246483350#0 246483350#1 246483350#2 246483350#3 101166556 251337837#0 251337837#1 311890778#0 311890778#1 106436298#0 106436298#1"/>
    </vehicle>
    <vehicle id="156" depart="156.00">
        <route edges="150771591#1 150771591#2 150771591#3 311890775#0 311890775#1 311890775#2 311890775#3 311890775#4 263839971#0 263839971#1 263839971#2 263839971#3 263839971#4 263839971#5 263839971#6 263839971#7"/>
    </vehicle>
    <vehicle id="160" depart="160.00">
        <route edges="150792162#0 150792162#1 150792162#2 150792162#3 311890775#1 311890775#2 311890775#3 311890775#4 441107643#0 441107643#1 441107643#2 441107643#3 246483031 101317729#0 101317729#1 101317729#2 101317729#3 101317729#4 263840206#0 263840206#1 263840206#2 250788646#0 250788646#1 250788646#2 250788646#3 250788646#4 246483350#0 246483350#1 246483350#2 246483350#3 101166556 251338678#0 251338678#1 101183511 101183518#0 101183518#1 101183518#2 102554241#0 102554241#1"/>
    </vehicle>
    <vehicle id="163" depart="163.00">
        <route edges="102443799#5 102443799#6 102443799#7 102443799#8 246483031 101317729#0 101317729#1 101317729#2 101317729#3 101317729#4 263840206#0 263840206#1 263840206#2 250788646#0 250788646#1 101183517#0"/>
    </vehicle>
    <vehicle id="169" depart="169.00">
        <route edges="101183525#3 101183518#0 101183518#1 101183518#2 102554241#0 102554241#1 102554241#2 102554241#3 246482271#0 246482271#1 246482271#2 246482271#3 150771591#0 150771591#1 150771591#2 150771591#3 311890775#0 311890775#1 311890775#2 311890775#3 311890775#4 441107643#0 441107643#1 441107643#2 441107643#3 99517996#0 99517996#1"/>
    </vehicle>
    <vehicle id="173" depart="173.00">
        <route edges="150792162#0 150792162#1 150792162#2 150792162#3 311890775#1 311890775#2 311890775#3 311890775#4 441107643#0 441107643#1 441107643#2 441107643#3 246483031 101317729#0 101317729#1 101317729#2 101317729#3 101317729#4 263840206#0 263840206#1 263840206#2 250788646#0 250788646#1 250788646#2 250788646#3 250788646#4 246483350#0 246483350#1 246483350#2 246483350#3 101166556 251338678#0 251338678#1 101183511 101183518#0 101183518#1 101183518#2 102554241#0 102554241#1 102554241#2 102554241#3 246482271#0 246482271#1 246482271#2 246482271#3 246481869#0 246481869#1"/>
    </vehicle>

    <vehicle id="175" depart="175.00">
        <route edges="150792162#0 150792162#1 150792162#2 150792162#3 311890775#1 311890775#2 311890775#3 311890775#4 441107643#0 441107643#1 441107643#2 441107643#3 246483031 101317729#0 101317729#1 101317729#2 101317729#3 101317729#4 263840206#0 263840206#1 263840206#2 250788646#0 250788646#1 101183517#0 101183517#1"/>
    </vehicle>
    <vehicle id="180" depart="180.00">
        <route edges="150792162#0 150792162#1 150792162#2 150792162#3 311890775#1 311890775#2 311890775#3 311890775#4 441107643#0 441107643#1 441107643#2 441107643#3 246483031 101317729#0 101317729#1"/>
    </vehicle>
    <vehicle id="185" depart="185.00">
        <route edges="102441821#2 102441821#3 102441821#4 150771591#0 150771591#1 150771591#2 150771591#3 311890781#0 311890781#1 311890781#2 311890781#3 311890781#4 311890781#5 246483350#1 246483350#2 246483350#3 101166556 251337837#0 251337837#1 311890778#0 311890778#1 106436298#0 106436298#1"/>
    </vehicle>
    <vehicle id="188" depart="188.00">
        <route edges="100507099#0 100507099#1 250787626#1 250787626#2 250787626#3 263840206#0 263840206#1 263840206#2 441107658#0 441107658#1 441107658#2 441107658#3 441107658#4 263839971#0 263839971#1 263839971#2 263839971#3 263839971#4 263839971#5 263839971#6 263839971#7"/>
    </vehicle>

    <vehicle id="190" depart="190.00">
        <route edges="150792162#0 150792162#1 150792162#2 150792162#3 311890775#1 311890775#2 311890775#3 311890775#4 441107643#0 441107643#1 441107643#2 441107643#3 246483031 101317729#0 101317729#1 101317729#2 101317729#3 101317729#4 263840206#0 263840206#1 263840206#2 250788646#0 250788646#1 250788646#2 250788646#3 250788646#4 246483350#0 246483350#1 246483350#2 246483350#3 101166556 251337837#0 251337837#1 101183499#0"/>
    </vehicle>
    <vehicle id="192" depart="192.00">
        <route edges="441107658#2 441107658#3 441107658#4 441107643#0 441107643#1 441107643#2 441107643#3 246483031 101317729#0 101317729#1 101317729#2 101317729#3 101317729#4 263840206#0 263840206#1 263840206#2 250788646#0 250788646#1 250788646#2 250788646#3 250788646#4 246483350#0 246483350#1 246483350#2 246483350#3 101166556 251338678#0 251338678#1 101166558#0 101166558#1"/>
    </vehicle>
    <vehicle id="194" depart="194.00">
        <route edges="102441821#2 102441821#3 102441821#4 150771591#0 150771591#1 150771591#2 150771591#3 311890781#0 311890781#1 311890781#2"/>
    </vehicle>

    <vehicle id="196" depart="196.00">
        <route edges="150792162#0 150792162#1 150792162#2 150792162#3 311890775#1 311890775#2 311890775#3 311890775#4 263839971#0 263839971#1 263839971#2 263839971#3 263839971#4 263839971#5 263839971#6 263839971#7"/>
    </vehicle>
    <vehicle id="200" depart="200.00">
        <route edges="101183517#0 101183524#1 441107658#2 441107658#3 441107658#4 441107643#0 441107643#1 441107643#2 441107643#3 246483031 101317729#0 101317729#1 101317729#2"/>
    </vehicle>
    <vehicle id="207" depart="207.00">
        <route edges="150771643#0 150771643#1 150771643#2 250788646#0 250788646#1 250788646#2 250788646#3 250788646#4 246483350#0 246483350#1 246483350#2 246483350#3 101166556 251337837#0 251337837#1 311890778#0"/>
    </vehicle>

    <vehicle id="210" depart="210.00">
        <route edges="150792162#0 150792162#1 150792162#2 150792162#3 311890775#1 311890775#2 311890775#3 311890775#4 441107643#0 441107643#1 441107643#2 441107643#3 246483031 101317729#0 101317729#1 101317729#2 101317729#3 101317729#4 263840206#0 263840206#1 263840206#2 250788646#0 250788646#1 250788646#2 250788646#3 250788646#4 246483350#0 246483350#1 246483350#2 246483350#3 101166556 251337837#0 251337837#1 101183499#0"/>
    </vehicle>

    <vehicle id="212" depart="212.00">
        <route edges="250787626#0 250787626#1 250787626#2 250787626#3 263840206#0 263840206#1 263840206#2 250788646#0 250788646#1 250788646#2 250788646#3 250788646#4 246483350#0 246483350#1 246483350#2 246483350#3 101166556 251338678#0 251338678#1 101183511 101183518#0 101183518#1 101183518#2 102554241#0 102554241#1 102554241#2 102554241#3 246482271#0 246482271#1 246482271#2 246482271#3 150771591#0 150771591#1"/>
    </vehicle>
    <vehicle id="215" depart="215.00">
        <route edges="102441821#2 102441821#3 102441821#4 150771591#0 150771591#1 150771591#2 150771591#3 311890781#0 311890781#1 311890781#2 311890781#3"/>
    </vehicle>
    <vehicle id="220" depart="220.00">
        <route edges="102441821#2 102441821#3 102441821#4 150771591#0 150771591#1 150771591#2 150771591#3 311890781#0 311890781#1 311890781#2 311890781#3 311890781#4 311890781#5 246483350#1 246483350#2 246483350#3 101166556 251338678#0 251338678#1 101183511 101183518#0 101183518#1 101183518#2 102554241#0 102554241#1 102554241#2 66348958#0 66348958#1"/>
    </vehicle>
    <vehicle id="225" depart="225.00">
        <route edges="150771591#1 150771591#2 150771591#3 311890775#0 311890775#1 311890775#2 311890775#3 311890775#4 441107643#0 441107643#1 441107643#2 441107643#3 246483031 101317729#0 101317729#1 101317729#2 101317729#3 101317729#4 263840206#0"/>
    </vehicle>
    <vehicle id="228" depart="228.00">
        <route edges="311890781#3 311890781#4 311890781#5 246483350#1 246483350#2 246483350#3 101166556 251338678#0 251338678#1 101183511 101183518#0 101183518#1 101183518#2 102554241#0 102554241#1 102554241#2 102554241#3 246482271#0 246482271#1 246482271#2 246482271#3 246481869#0"/>
    </vehicle>
 
    <vehicle id="230" depart="230.00">
        <route edges="101317729#1 101317729#2 101317729#3 101317729#4 263840206#0 263840206#1 263840206#2 250788646#0 250788646#1 250788646#2 250788646#3 250788646#4 246483350#0 246483350#1 246483350#2 246483350#3 101166556 251338678#0 251338678#1 101183511 101183518#0 101183518#1 101183518#2 102554241#0 102554241#1"/>
    </vehicle>

    <vehicle id="233" depart="233.00">
        <route edges="101176346#0 101176346#1 101176346#2 263840206#0 263840206#1 263840206#2 441107658#0 441107658#1 441107658#2 441107658#3 441107658#4 263839971#0 263839971#1 263839971#2 263839971#3 263839971#4 263839971#5"/>
    </vehicle>
    <vehicle id="235" depart="235.00">
        <route edges="102443799#0 102443799#1 102443799#2 102443799#3 102443799#4 102443799#5 102443799#6 102443799#7 102443799#8 246483031 101317729#0 101317729#1 101317729#2 101317729#3 101317729#4 263840206#0 263840206#1 263840206#2 250788646#0 250788646#1 250788646#2 250788646#3 250788646#4 246483350#0 246483350#1 246483350#2 246483350#3 101166556 251338678#0 251338678#1 101183511 101183518#0 101183518#1 101183518#2 102554241#0 102554241#1"/>
    </vehicle>
    <vehicle id="242" depart="242.00">
        <route edges="150771643#0 150771643#1 150771643#2 250788646#0 250788646#1 250788646#2 250788646#3 250788646#4 101166561#0 101166561#1"/>
    </vehicle>

    <vehicle id="244" depart="244.00">
        <route edges="100507099#0 100507099#1 250787626#1 250787626#2 250787626#3 263840206#0 263840206#1 263840206#2 441107658#0 441107658#1 441107658#2 441107658#3 441107658#4 441107643#0 441107643#1 441107643#2 441107643#3 246483031 101317729#0 101317729#1"/>
    </vehicle>

    <vehicle id="253" depart="253.00">