<additional>
 
<!--< Flow1 >Here are bus stations in Reclamation street -->
    <busStop id="3230273798" lane="101317729#2_0" startPos="25" endPos="30" lines="68X" />
    <busStop id="3230273797" lane="101317729#2_0" startPos="10" endPos="15" lines="68X" />
    <busStop id="3230273796" lane="101317729#1_0" startPos="70" endPos="75" lines="68X" />
    <busStop id="3230266833" lane="101317729#1_0" startPos="60" endPos="65" lines="68X" />
    <busStop id="3230273795" lane="101317729#1_0" startPos="35" endPos="40" lines="68X" />
    <busStop id="3230273794" lane="101317729#1_0" startPos="20" endPos="25" lines="68X" />
    <busStop id="3230273793" lane="101317729#1_0" startPos="10" endPos="15" lines="68X" />

<!--<Flow2 > Here are bus stations in Argyle Street-->
    <busStop id="3230266816" lane="441107658#2_0" startPos="35" endPos="40" lines="68X" />

<!--<Flow3 > Here are bus stations in File Street Mong Kok-->
    <busStop id="3230266832" lane="246481869#0_0" startPos="40" endPos="45" lines="102 102P 58X" />
    <busStop id="3230266831" lane="246481869#0_0" startPos="55" endPos="60" lines="102 102P" />
    <busStop id="3230266830" lane="246481869#0_0" startPos="75" endPos="80" lines="102 58X" />
    <busStop id="3230266829" lane="246481869#0_0" startPos="85" endPos="90" lines="102 58X" />

<!--<Flow4 > Here are bus stations in Mong Kok Railway Station and Argyle Centre-->
    <busStop id="3230273769" lane="311890778#0_0" startPos="0 " endPos="5" lines="102 6 102P 12" />
    <busStop id="3230266815" lane="311890778#0_0" startPos="10" endPos="15" lines="68X 1 905 971" />
    <busStop id="3230273768" lane="311890778#0_0" startPos="30" endPos="35" lines="1 102" />
    <busStop id="3230266814" lane="311890778#0_0" startPos="40" endPos="45" lines="100 101 102" />
    <busStop id="3230273767" lane="311890778#0_0" startPos="50" endPos="55" lines="1 102" />
    <busStop id="3230273763" lane="311890778#0_0" startPos="80" endPos="85" lines="100 101 102" />

<!--<Flow5 > Here are bus stations in Sai Yeung Chai Street South-->
    <busStop id="3230273802" lane="101183518#1_0" startPos="0 " endPos=" 5" lines="68X 1A" />
    <busStop id="3230273803" lane="101183518#1_0" startPos="10" endPos="15" lines="68X 1A" />
    <busStop id="3230273801" lane="102554241#1_0" startPos="25" endPos="30" lines="68X 1A" />
    <busStop id="3230273800" lane="102554241#1_0" startPos="38" endPos="43" lines="68X 1A" />
    <busStop id="3230273709" lane="102554241#1_0" startPos="50" endPos="55" lines="68X 1A" />

    <vType id="BUS" accel="2.6" decel="4.5" sigma="0" length="5" minGap="3" maxSpeed="40" color="1,1,0" guiShape="bus"/>

<!--From "Argyle Street"->"Reclamation Street"->"Mong Kok Road"->"Shanghai Street" -->
<!--Bus passing from this roads is: 68X. Depart in every 40 seconds -->
<!--68X-1-->
    <vehicle id="68x_1" type="BUS" depart="0" color="1,0,1">
        <route edges="101176351#0 101176351#1 101176351#2 101176351#3 
                      101317729#0 101317729#1 101317729#2 101317729#3 101317729#4
                      263840206#0 263840206#1 263840206#2
                      441107658#0 441107658#1 441107658#2 441107658#3 441107658#4
                      263839971#0 263839971#1 263839971#2 263839971#3 263839971#4
                                  263839971#5 263839971#6 263839971#7 263839971#8"/>
        <stop busStop="3230273795" duration="10"/>
        <stop busStop="3230273798" duration="5"/>
        <stop busStop="3230266816" duration="20"/>
    </vehicle>
<!--68X-2-->
    <vehicle id="68x_2" type="BUS" depart="25" color="1,0,1">
        <route edges="101176351#0 101176351#1 101176351#2 101176351#3 
                      101317729#0 101317729#1 101317729#2 101317729#3 101317729#4
                      263840206#0 263840206#1 263840206#2
                      441107658#0 441107658#1 441107658#2 441107658#3 441107658#4
                      263839971#0 263839971#1 263839971#2 263839971#3 263839971#4
                                  263839971#5 263839971#6 263839971#7 263839971#8"/>
        <stop busStop="3230273795" duration="5"/>
        <stop busStop="3230273798" duration="10"/>
        <stop busStop="3230266816" duration="20"/>
    </vehicle>
<!--68X-3-->
    <vehicle id="68x_3" type="BUS" depart="50" color="1,0,1">
        <route edges="101176351#0 101176351#1 101176351#2 101176351#3 
                      101317729#0 101317729#1 101317729#2 101317729#3 101317729#4
                      263840206#0 263840206#1 263840206#2
                      441107658#0 441107658#1 441107658#2 441107658#3 441107658#4
                      263839971#0 263839971#1 263839971#2 263839971#3 263839971#4
                                  263839971#5 263839971#6 263839971#7 263839971#8"/>
        <stop busStop="3230273795" duration="10"/>
        <stop busStop="3230273798" duration="5"/>
        <stop busStop="3230266816" duration="20"/>
    </vehicle>
<!--68X-4-->
    <vehicle id="68x_4" type="BUS" depart="75" color="1,0,1">
        <route edges="101176351#0 101176351#1 101176351#2 101176351#3 
                      101317729#0 101317729#1 101317729#2 101317729#3 101317729#4
                      263840206#0 263840206#1 263840206#2
                      441107658#0 441107658#1 441107658#2 441107658#3 441107658#4
                      263839971#0 263839971#1 263839971#2 263839971#3 263839971#4
                                  263839971#5 263839971#6 263839971#7 263839971#8"/>
        <stop busStop="3230273793" duration="10"/>
        <stop busStop="3230266833" duration="5"/>
        <stop busStop="3230266816" duration="20"/>
    </vehicle>

<!--68X-5-->
    <vehicle id="68x_5" type="BUS" depart="100" color="1,0,1">
        <route edges="101176351#0 101176351#1 101176351#2 101176351#3 
                      101317729#0 101317729#1 101317729#2 101317729#3 101317729#4
                      263840206#0 263840206#1 263840206#2
                      441107658#0 441107658#1 441107658#2 441107658#3 441107658#4
                      263839971#0 263839971#1 263839971#2 263839971#3 263839971#4
                                  263839971#5 263839971#6 263839971#7 263839971#8"/>
        <stop busStop="3230273793" duration="10"/>
        <stop busStop="3230266833" duration="5"/>
        <stop busStop="3230266816" duration="20"/>
    </vehicle>
<!--68X-6-->
    <vehicle id="68x_6" type="BUS" depart="125" color="1,0,1">
        <route edges="101176351#0 101176351#1 101176351#2 101176351#3 
                      101317729#0 101317729#1 101317729#2 101317729#3 101317729#4
                      263840206#0 263840206#1 263840206#2
                      441107658#0 441107658#1 441107658#2 441107658#3 441107658#4
                      263839971#0 263839971#1 263839971#2 263839971#3 263839971#4
                                  263839971#5 263839971#6 263839971#7 263839971#8"/>
        <stop busStop="3230273793" duration="5"/>
        <stop busStop="3230266833" duration="5"/>
        <stop busStop="3230266816" duration="20"/>
    </vehicle>
<!--68X-7-->
    <vehicle id="68x_7" type="BUS" depart="150" color="1,0,1">
        <route edges="101176351#0 101176351#1 101176351#2 101176351#3 
                      101317729#0 101317729#1 101317729#2 101317729#3 101317729#4
                      263840206#0 263840206#1 263840206#2
                      441107658#0 441107658#1 441107658#2 441107658#3 441107658#4
                      263839971#0 263839971#1 263839971#2 263839971#3 263839971#4
                                  263839971#5 263839971#6 263839971#7 263839971#8"/>
        <stop busStop="3230273795" duration="5"/>
        <stop busStop="3230273798" duration="5"/>
        <stop busStop="3230266816" duration="20"/>
    </vehicle>
<!--68X-8-->
    <vehicle id="68x_8" type="BUS" depart="175" color="1,0,1">
        <route edges="101176351#0 101176351#1 101176351#2 101176351#3 
                      101317729#0 101317729#1 101317729#2 101317729#3 101317729#4
                      263840206#0 263840206#1 263840206#2
                      441107658#0 441107658#1 441107658#2 441107658#3 441107658#4
                      263839971#0 263839971#1 263839971#2 263839971#3 263839971#4
                                  263839971#5 263839971#6 263839971#7 263839971#8"/>
        <stop busStop="3230273795" duration="10"/>
        <stop busStop="3230273798" duration="5"/>
        <stop busStop="3230266816" duration="20"/>
    </vehicle>
<!--68X-9-->
    <vehicle id="68x_9" type="BUS" depart="200" color="1,0,1">
        <route edges="101176351#0 101176351#1 101176351#2 101176351#3 
                      101317729#0 101317729#1 101317729#2 101317729#3 101317729#4
                      263840206#0 263840206#1 263840206#2
                      441107658#0 441107658#1 441107658#2 441107658#3 441107658#4
                      263839971#0 263839971#1 263839971#2 263839971#3 263839971#4
                                  263839971#5 263839971#6 263839971#7 263839971#8"/>
        <stop busStop="3230273795" duration="10"/>
        <stop busStop="3230273798" duration="5"/>
        <stop busStop="3230266816" duration="20"/>
    </vehicle>
<!--68X-10-->
    <vehicle id="68x_10" type="BUS" depart="225" color="1,0,1">
        <route edges="101176351#0 101176351#1 101176351#2 101176351#3 
                      101317729#0 101317729#1 101317729#2 101317729#3 101317729#4
                      263840206#0 263840206#1 263840206#2
                      441107658#0 441107658#1 441107658#2 441107658#3 441107658#4
                      263839971#0 263839971#1 263839971#2 263839971#3 263839971#4
                                  263839971#5 263839971#6 263839971#7 263839971#8"/>
        <stop busStop="3230273795" duration="10"/>
        <stop busStop="3230273798" duration="10"/>
        <stop busStop="3230266816" duration="10"/>
    </vehicle>
<!--68X-11-->
    <vehicle id="68x_11" type="BUS" depart="250" color="1,0,1">
        <route edges="101176351#0 101176351#1 101176351#2 101176351#3 
                      101317729#0 101317729#1 101317729#2 101317729#3 101317729#4
                      263840206#0 263840206#1 263840206#2
                      441107658#0 441107658#1 441107658#2 441107658#3 441107658#4
                      263839971#0 263839971#1 263839971#2 263839971#3 263839971#4
                                  263839971#5 263839971#6 263839971#7 263839971#8"/>
        <stop busStop="3230273795" duration="15"/>
        <stop busStop="3230273798" duration="5"/>
        <stop busStop="3230266816" duration="10"/>
    </vehicle>
<!--68X-12-->
    <vehicle id="68x_12" type="BUS" depart="275" color="1,0,1">
        <route edges="101176351#0 101176351#1 101176351#2 101176351#3 
                      101317729#0 101317729#1 101317729#2 101317729#3 101317729#4
                      263840206#0 263840206#1 263840206#2
                      441107658#0 441107658#1 441107658#2 441107658#3 441107658#4
                      263839971#0 263839971#1 263839971#2 263839971#3 263839971#4
                                  263839971#5 263839971#6 263839971#7 263839971#8"/>
        <stop busStop="3230273795" duration="15"/>
        <stop busStop="3230273798" duration="5"/>
        <stop busStop="3230266816" duration="10"/>
    </vehicle>
<!--68X-13-->
    <vehicle id="68x_13" type="BUS" depart="300" color="1,0,1">
        <route edges="101176351#0 101176351#1 101176351#2 101176351#3 
                      101317729#0 101317729#1 101317729#2 101317729#3 101317729#4
                      263840206#0 263840206#1 263840206#2
                      441107658#0 441107658#1 441107658#2 441107658#3 441107658#4
                      263839971#0 263839971#1 263839971#2 263839971#3 263839971#4
                                  263839971#5 263839971#6 263839971#7 263839971#8"/>
        <stop busStop="3230273795" duration="15"/>
        <stop busStop="3230273798" duration="5"/>
        <stop busStop="3230266816" duration="10"/>
    </vehicle>
<!--From "Nathan Road" -->
<!--Bus passing from this roads is: 102/ 102P. Depart in every 50 seconds -->
<!--102-1-->
    <vehicle id="102_1" type="BUS" depart="0" color="1,1,1">
        <route edges="4793007#0 4793007#1 4793007#2 251337837#0 251337837#1 311890778#0 311890778#1
                      106436298#0 106436298#1 106436298#2"/>
        <stop busStop="3230273769" duration="15"/>
        <stop busStop="3230273768" duration="10"/>
        <stop busStop="3230273767" duration="10"/>
    </vehicle>
<!--102-2-->
    <vehicle id="102_2" type="BUS" depart="25" color="1,1,1">
        <route edges="4793007#0 4793007#1 4793007#2 251337837#0 251337837#1 311890778#0 311890778#1
                      106436298#0 106436298#1 106436298#2"/>
        <stop busStop="3230273769" duration="15"/>
        <stop busStop="3230273768" duration="10"/>
        <stop busStop="3230273767" duration="10"/>
    </vehicle>
<!--102-3-->
    <vehicle id="102_3" type="BUS" depart="50" color="1,1,1">
        <route edges="4793007#0 4793007#1 4793007#2 251337837#0 251337837#1 311890778#0 311890778#1
                      106436298#0 106436298#1 106436298#2"/>
        <stop busStop="3230273769" duration="15"/>
        <stop busStop="3230273768" duration="10"/>
        <stop busStop="3230273767" duration="10"/>
    </vehicle>
<!--102-4-->
    <vehicle id="102_4" type="BUS" depart="75" color="1,1,1">
        <route edges="4793007#0 4793007#1 4793007#2 251337837#0 251337837#1 311890778#0 311890778#1
                      106436298#0 106436298#1 106436298#2"/>
        <stop busStop="3230273769" duration="15"/>
        <stop busStop="3230273768" duration="10"/>
        <stop busStop="3230273767" duration="10"/>
    </vehicle>
<!--102-5-->
    <vehicle id="102_5" type="BUS" depart="100" color="1,1,1">
        <route edges="4793007#0 4793007#1 4793007#2 251337837#0 251337837#1 311890778#0 311890778#1
                      106436298#0 106436298#1 106436298#2"/>
        <stop busStop="3230273769" duration="15"/>
        <stop busStop="3230273768" duration="10"/>
        <stop busStop="3230273767" duration="10"/>
    </vehicle>
<!--102-6-->
    <vehicle id="102_6" type="BUS" depart="125" color="1,1,1">
        <route edges="4793007#0 4793007#1 4793007#2 251337837#0 251337837#1 311890778#0 311890778#1
                      106436298#0 106436298#1 106436298#2"/>
        <stop busStop="3230273769" duration="15"/>
        <stop busStop="3230273768" duration="10"/>
        <stop busStop="3230273767" duration="10"/>
    </vehicle>
<!--102-7-->
    <vehicle id="102_7" type="BUS" depart="150" color="1,1,1">
        <route edges="4793007#0 4793007#1 4793007#2 251337837#0 251337837#1 311890778#0 311890778#1
                      106436298#0 106436298#1 106436298#2"/>
        <stop busStop="3230273769" duration="15"/>
        <stop busStop="3230273768" duration="10"/>
        <stop busStop="3230273767" duration="10"/>
    </vehicle>
<!--102-8-->
    <vehicle id="102_8" type="BUS" depart="175" color="1,1,1">
        <route edges="4793007#0 4793007#1 4793007#2 251337837#0 251337837#1 311890778#0 311890778#1
                      106436298#0 106436298#1 106436298#2"/>
        <stop busStop="3230273769" duration="15"/>
        <stop busStop="3230273768" duration="10"/>
        <stop busStop="3230273767" duration="10"/>
    </vehicle>
<!--102-9-->
    <vehicle id="102_9" type="BUS" depart="200" color="1,1,1">
        <route edges="4793007#0 4793007#1 4793007#2 251337837#0 251337837#1 311890778#0 311890778#1
                      106436298#0 106436298#1 106436298#2"/>
        <stop busStop="3230273769" duration="15"/>
        <stop busStop="3230273768" duration="10"/>
        <stop busStop="3230273767" duration="10"/>
    </vehicle>
<!--102-10-->
    <vehicle id="102_10" type="BUS" depart="225" color="1,1,1">
        <route edges="4793007#0 4793007#1 4793007#2 251337837#0 251337837#1 311890778#0 311890778#1
                      106436298#0 106436298#1 106436298#2"/>
        <stop busStop="3230273769" duration="15"/>
        <stop busStop="3230273768" duration="10"/>
        <stop busStop="3230273767" duration="10"/>
    </vehicle>
<!--102-11-->
    <vehicle id="102_11" type="BUS" depart="250" color="1,1,1">
        <route edges="4793007#0 4793007#1 4793007#2 251337837#0 251337837#1 311890778#0 311890778#1
                      106436298#0 106436298#1 106436298#2"/>
        <stop busStop="3230273769" duration="15"/>
        <stop busStop="3230273768" duration="10"/>
        <stop busStop="3230273767" duration="10"/>
    </vehicle>
<!--102-12-->
    <vehicle id="102_12" type="BUS" depart="275" color="1,1,1">
        <route edges="4793007#0 4793007#1 4793007#2 251337837#0 251337837#1 311890778#0 311890778#1
                      106436298#0 106436298#1 106436298#2"/>
        <stop busStop="3230273769" duration="15"/>
        <stop busStop="3230273768" duration="10"/>
        <stop busStop="3230273767" duration="10"/>
    </vehicle>
<!--102-13-->
    <vehicle id="102_13" type="BUS" depart="300" color="1,1,1">
        <route edges="4793007#0 4793007#1 4793007#2 251337837#0 251337837#1 311890778#0 311890778#1
                      106436298#0 106436298#1 106436298#2"/>
        <stop busStop="3230273769" duration="15"/>
        <stop busStop="3230273768" duration="10"/>
        <stop busStop="3230273767" duration="10"/>
    </vehicle>
<!--From "Shanghai Road"->"Mong Kok street"->"Nathan Road" -->
<!--Bus passing from this roads is: 1 . Depart in every 50 seconds -->
<!--1_1-->
    <vehicle id="1_1" type="BUS" depart="0" color="1,0,0">
        <route edges="150771643#0 150771643#1 150771643#2 250788646#0 250788646#1 250788646#2 250788646#3 250788646#4
                      246483350#0 246483350#1 246483350#2 246483350#3 101166556 251337837#0 251337837#1 311890778#0 311890778#1
                      106436298#0 106436298#1 106436298#2"/>
        <stop busStop="3230273768" duration="10"/>
        <stop busStop="3230273767" duration="10"/>
    </vehicle>
<!--1_2-->
    <vehicle id="1_2" type="BUS" depart="25" color="1,0,0">
        <route edges="150771643#0 150771643#1 150771643#2 250788646#0 250788646#1 250788646#2 250788646#3 250788646#4
                      246483350#0 246483350#1 246483350#2 246483350#3 101166556 251337837#0 251337837#1 311890778#0 311890778#1
                      106436298#0 106436298#1 106436298#2"/>
        <stop busStop="3230273768" duration="10"/>
        <stop busStop="3230273767" duration="10"/>
    </vehicle>
<!--1_3-->
    <vehicle id="1_3" type="BUS" depart="50" color="1,0,0">
        <route edges="150771643#0 150771643#1 150771643#2 250788646#0 250788646#1 250788646#2 250788646#3 250788646#4
                      246483350#0 246483350#1 246483350#2 246483350#3 101166556 251337837#0 251337837#1 311890778#0 311890778#1
                      106436298#0 106436298#1 106436298#2"/>
        <stop busStop="3230273768" duration="10"/>
        <stop busStop="3230273767" duration="10"/>
    </vehicle>
<!--1_4-->
    <vehicle id="1_4" type="BUS" depart="75" color="1,0,0">
        <route edges="150771643#0 150771643#1 150771643#2 250788646#0 250788646#1 250788646#2 250788646#3 250788646#4
                      246483350#0 246483350#1 246483350#2 246483350#3 101166556 251337837#0 251337837#1 311890778#0 311890778#1
                      106436298#0 106436298#1 106436298#2"/>
        <stop busStop="3230273768" duration="10"/>
        <stop busStop="3230273767" duration="10"/>
    </vehicle>
<!--1_5-->
    <vehicle id="1_5" type="BUS" depart="100" color="1,0,0">
        <route edges="150771643#0 150771643#1 150771643#2 250788646#0 250788646#1 250788646#2 250788646#3 250788646#4
                      246483350#0 246483350#1 246483350#2 246483350#3 101166556 251337837#0 251337837#1 311890778#0 311890778#1
                      106436298#0 106436298#1 106436298#2"/>
        <stop busStop="3230273768" duration="10"/>
        <stop busStop="3230273767" duration="10"/>
    </vehicle>
<!--1_6-->
    <vehicle id="1_6" type="BUS" depart="125" color="1,0,0">
        <route edges="150771643#0 150771643#1 150771643#2 250788646#0 250788646#1 250788646#2 250788646#3 250788646#4
                      246483350#0 246483350#1 246483350#2 246483350#3 101166556 251337837#0 251337837#1 311890778#0 311890778#1
                      106436298#0 106436298#1 106436298#2"/>
        <stop busStop="3230273768" duration="10"/>
        <stop busStop="3230273767" duration="10"/>
    </vehicle>
<!--1_7-->
    <vehicle id="1_7" type="BUS" depart="150" color="1,0,0">
        <route edges="150771643#0 150771643#1 150771643#2 250788646#0 250788646#1 250788646#2 250788646#3 250788646#4
                      246483350#0 246483350#1 246483350#2 246483350#3 101166556 251337837#0 251337837#1 311890778#0 311890778#1
                      106436298#0 106436298#1 106436298#2"/>
        <stop busStop="3230273768" duration="10"/>
        <stop busStop="3230273767" duration="10"/>
    </vehicle>
<!--1_8-->
    <vehicle id="1_8" type="BUS" depart="175" color="1,0,0">
        <route edges="150771643#0 150771643#1 150771643#2 250788646#0 250788646#1 250788646#2 250788646#3 250788646#4
                      246483350#0 246483350#1 246483350#2 246483350#3 101166556 251337837#0 251337837#1 311890778#0 311890778#1
                      106436298#0 106436298#1 106436298#2"/>
        <stop busStop="3230273768" duration="10"/>
        <stop busStop="3230273767" duration="10"/>
    </vehicle>
<!--1_9-->
    <vehicle id="1_9" type="BUS" depart="200" color="1,0,0">
        <route edges="150771643#0 150771643#1 150771643#2 250788646#0 250788646#1 250788646#2 250788646#3 250788646#4
                      246483350#0 246483350#1 246483350#2 246483350#3 101166556 251337837#0 251337837#1 311890778#0 311890778#1
                      106436298#0 106436298#1 106436298#2"/>
        <stop busStop="3230273768" duration="10"/>
        <stop busStop="3230273767" duration="10"/>
    </vehicle>
<!--1_10-->
    <vehicle id="1_10" type="BUS" depart="225" color="1,0,0">
        <route edges="150771643#0 150771643#1 150771643#2 250788646#0 250788646#1 250788646#2 250788646#3 250788646#4
                      246483350#0 246483350#1 246483350#2 246483350#3 101166556 251337837#0 251337837#1 311890778#0 311890778#1
                      106436298#0 106436298#1 106436298#2"/>
        <stop busStop="3230273768" duration="10"/>
        <stop busStop="3230273767" duration="10"/>
    </vehicle>
<!--1_11-->
    <vehicle id="1_11" type="BUS" depart="250" color="1,0,0">
        <route edges="150771643#0 150771643#1 150771643#2 250788646#0 250788646#1 250788646#2 250788646#3 250788646#4
                      246483350#0 246483350#1 246483350#2 246483350#3 101166556 251337837#0 251337837#1 311890778#0 311890778#1
                      106436298#0 106436298#1 106436298#2"/>
        <stop busStop="3230273768" duration="10"/>
        <stop busStop="3230273767" duration="10"/>
    </vehicle>
<!--1_12-->
    <vehicle id="1_12" type="BUS" depart="275" color="1,0,0">
        <route edges="150771643#0 150771643#1 150771643#2 250788646#0 250788646#1 250788646#2 250788646#3 250788646#4
                      246483350#0 246483350#1 246483350#2 246483350#3 101166556 251337837#0 251337837#1 311890778#0 311890778#1
                      106436298#0 106436298#1 106436298#2"/>
        <stop busStop="3230273768" duration="10"/>
        <stop busStop="3230273767" duration="10"/>
    </vehicle>
<!--1_13-->
    <vehicle id="1_13" type="BUS" depart="300" color="1,0,0">
        <route edges="150771643#0 150771643#1 150771643#2 250788646#0 250788646#1 250788646#2 250788646#3 250788646#4
                      246483350#0 246483350#1 246483350#2 246483350#3 101166556 251337837#0 251337837#1 311890778#0 311890778#1
                      106436298#0 106436298#1 106436298#2"/>
        <stop busStop="3230273768" duration="10"/>
        <stop busStop="3230273767" duration="10"/>
    </vehicle>

<!--<Flow5 > Here are bus stations in Sai Yeung Chai Street South
    <busStop id="3230273802" lane="101183518#1_0" startPos="0 " endPos=" 5" lines="68X" />
    <busStop id="3230273803" lane="101183518#1_0" startPos="10" endPos="15" lines="68X" />
    <busStop id="3230273801" lane="102554241#1_0" startPos="25" endPos="30" lines="68X" />
    <busStop id="3230273800" lane="102554241#1_0" startPos="38" endPos="43" lines="68X" />
    <busStop id="3230273709" lane="102554241#1_0" startPos="50" endPos="55" lines="68X" />
-->
<!--From "Nathan Road"->"Mong Kok street"->"Sai Yeung Chai Street South"->"Argyle Street"->"Shanghai street" -->
<!--Bus passing from this roads is: 1A . Depart in every 50 seconds -->
<!--1A_1-->
    <vehicle id="1A_1" type="BUS" depart="10" color="0,0,1">
        <route edges="4793007#0 4793007#1 4793007#2 251338678#0 251338678#1 101183511 101183518#0 101183518#1 101183518#2
                      102554241#0 102554241#1 102554241#2 102554241#3 246482271#0 246482271#1 246482271#2 246482271#3
                      150771591#0 150771591#1 150771591#2 150771591#3 
                      311890775#0 311890775#1 311890775#2 311890775#3 311890775#4 
                      263839971#0 263839971#1 263839971#2 263839971#3 263839971#4 263839971#5 263839971#6 263839971#7 263839971#8"/>
        <stop busStop="3230273802" duration="10"/>
        <stop busStop="3230273801" duration="10"/>
        <stop busStop="3230273709" duration="10"/>
    </vehicle>
<!--1A_2-->
    <vehicle id="1A_2" type="BUS" depart="40" color="0,0,1">
        <route edges="4793007#0 4793007#1 4793007#2 251338678#0 251338678#1 101183511 101183518#0 101183518#1 101183518#2
                      102554241#0 102554241#1 102554241#2 102554241#3 246482271#0 246482271#1 246482271#2 246482271#3
                      150771591#0 150771591#1 150771591#2 150771591#3 
                      311890775#0 311890775#1 311890775#2 311890775#3 311890775#4 
                      263839971#0 263839971#1 263839971#2 263839971#3 263839971#4 263839971#5 263839971#6 263839971#7 263839971#8"/>
        <stop busStop="3230273802" duration="10"/>
        <stop busStop="3230273801" duration="10"/>
        <stop busStop="3230273709" duration="10"/>
    </vehicle>
<!--1A_3-->
    <vehicle id="1A_3" type="BUS" depart="70" color="0,0,1">
        <route edges="4793007#0 4793007#1 4793007#2 251338678#0 251338678#1 101183511 101183518#0 101183518#1 101183518#2
                      102554241#0 102554241#1 102554241#2 102554241#3 246482271#0 246482271#1 246482271#2 246482271#3
                      150771591#0 150771591#1 150771591#2 150771591#3 
                      311890775#0 311890775#1 311890775#2 311890775#3 311890775#4 
                      263839971#0 263839971#1 263839971#2 263839971#3 263839971#4 263839971#5 263839971#6 263839971#7 263839971#8"/>
        <stop busStop="3230273802" duration="10"/>
        <stop busStop="3230273801" duration="10"/>
        <stop busStop="3230273709" duration="10"/>
    </vehicle>
<!--1A_4-->
    <vehicle id="1A_4" type="BUS" depart="100" color="0,0,1">
        <route edges="4793007#0 4793007#1 4793007#2 251338678#0 251338678#1 101183511 101183518#0 101183518#1 101183518#2
                      102554241#0 102554241#1 102554241#2 102554241#3 246482271#0 246482271#1 246482271#2 246482271#3
                      150771591#0 150771591#1 150771591#2 150771591#3 
                      311890775#0 311890775#1 311890775#2 311890775#3 311890775#4 
                      263839971#0 263839971#1 263839971#2 263839971#3 263839971#4 263839971#5 263839971#6 263839971#7 263839971#8"/>
        <stop busStop="3230273802" duration="10"/>
        <stop busStop="3230273801" duration="10"/>
        <stop busStop="3230273709" duration="10"/>
    </vehicle>
<!--1A_5-->
    <vehicle id="1A_5" type="BUS" depart="130" color="0,0,1">
        <route edges="4793007#0 4793007#1 4793007#2 251338678#0 251338678#1 101183511 101183518#0 101183518#1 101183518#2
                      102554241#0 102554241#1 102554241#2 102554241#3 246482271#0 246482271#1 246482271#2 246482271#3
                      150771591#0 150771591#1 150771591#2 150771591#3 
                      311890775#0 311890775#1 311890775#2 311890775#3 311890775#4 
                      263839971#0 263839971#1 263839971#2 263839971#3 263839971#4 263839971#5 263839971#6 263839971#7 263839971#8"/>
        <stop busStop="3230273802" duration="10"/>
        <stop busStop="3230273801" duration="10"/>
        <stop busStop="3230273709" duration="10"/>
    </vehicle>
<!--1A_6-->
    <vehicle id="1A_6" type="BUS" depart="160" color="0,0,1">
        <route edges="4793007#0 4793007#1 4793007#2 251338678#0 251338678#1 101183511 101183518#0 101183518#1 101183518#2
                      102554241#0 102554241#1 102554241#2 102554241#3 246482271#0 246482271#1 246482271#2 246482271#3
                      150771591#0 150771591#1 150771591#2 150771591#3 
                      311890775#0 311890775#1 311890775#2 311890775#3 311890775#4 
                      263839971#0 263839971#1 263839971#2 263839971#3 263839971#4 263839971#5 263839971#6 263839971#7 263839971#8"/>
        <stop busStop="3230273802" duration="10"/>
        <stop busStop="3230273801" duration="10"/>
        <stop busStop="3230273709" duration="10"/>
    </vehicle>
<!--1A_7-->
    <vehicle id="1A_7" type="BUS" depart="190" color="0,0,1">
        <route edges="4793007#0 4793007#1 4793007#2 251338678#0 251338678#1 101183511 101183518#0 101183518#1 101183518#2
                      102554241#0 102554241#1 102554241#2 102554241#3 246482271#0 246482271#1 246482271#2 246482271#3
                      150771591#0 150771591#1 150771591#2 150771591#3 
                      311890775#0 311890775#1 311890775#2 311890775#3 311890775#4 
                      263839971#0 263839971#1 263839971#2 263839971#3 263839971#4 263839971#5 263839971#6 263839971#7 263839971#8"/>
        <stop busStop="3230273802" duration="10"/>
        <stop busStop="3230273801" duration="10"/>
        <stop busStop="3230273709" duration="10"/>
    </vehicle>