<?xml version="1.0" encoding="UTF-8"?>

<!-- generated on Wed Sep 14 15:41:16 2016 by SUMO netconvert Version 0.27.1
<?xml version="1.0" encoding="UTF-8"?>

<configuration xmlns:xsi="http://www.w3.org/2001/XMLSchema-instance" xsi:noNamespaceSchemaLocation="http://sumo.dlr.de/xsd/netconvertConfiguration.xsd">

    <input>
        <osm-files value="map.osm"/>
    </input>

    <output>
        <output-file value="MK-map.net.xml"/>
    </output>

    <projection>
        <proj.utm value="true"/>
    </projection>

</configuration>
-->

<net version="0.27" xmlns:xsi="http://www.w3.org/2001/XMLSchema-instance" xsi:noNamespaceSchemaLocation="http://sumo.dlr.de/xsd/net_file.xsd">

    <location netOffset="-204165.52,-2470171.21" convBoundary="0.00,0.00,4467.48,3817.21" origBoundary="114.127797,22.312663,114.171686,22.346384" projParameter="+proj=utm +zone=50 +ellps=WGS84 +datum=WGS84 +units=m +no_defs"/>

    <type id="highway.bridleway" priority="1" numLanes="1" speed="2.78" allow="pedestrian" oneway="1" width="2.00"/>
    <type id="highway.bus_guideway" priority="1" numLanes="1" speed="8.33" allow="bus" oneway="1"/>
    <type id="highway.cycleway" priority="1" numLanes="1" speed="5.56" allow="bicycle" oneway="0" width="1.00"/>
    <type id="highway.footway" priority="1" numLanes="1" speed="2.78" allow="pedestrian" oneway="1" width="2.00"/>
    <type id="highway.ford" priority="1" numLanes="1" speed="2.78" allow="army" oneway="0"/>
    <type id="highway.living_street" priority="3" numLanes="1" speed="2.78" disallow="tram rail_urban rail rail_electric ship" oneway="0"/>
    <type id="highway.motorway" priority="13" numLanes="2" speed="44.44" allow="private emergency authority army vip passenger hov taxi bus coach delivery truck trailer motorcycle evehicle custom1 custom2" oneway="1"/>
    <type id="highway.motorway_link" priority="12" numLanes="1" speed="22.22" allow="private emergency authority army vip passenger hov taxi bus coach delivery truck trailer motorcycle evehicle custom1 custom2" oneway="1"/>
    <type id="highway.path" priority="1" numLanes="1" speed="2.78" allow="bicycle pedestrian" oneway="1" width="2.00"/>
    <type id="highway.pedestrian" priority="1" numLanes="1" speed="2.78" allow="pedestrian" oneway="1" width="2.00"/>
    <type id="highway.primary" priority="9" numLanes="2" speed="27.78" disallow="tram rail_urban rail rail_electric ship" oneway="0"/>
    <type id="highway.primary_link" priority="8" numLanes="1" speed="22.22" disallow="tram rail_urban rail rail_electric ship" oneway="0"/>
    <type id="highway.raceway" priority="14" numLanes="2" speed="83.33" allow="vip" oneway="0"/>
    <type id="highway.residential" priority="4" numLanes="1" speed="13.89" disallow="tram rail_urban rail rail_electric ship" oneway="0"/>
    <type id="highway.secondary" priority="7" numLanes="2" speed="27.78" disallow="tram rail_urban rail rail_electric ship" oneway="0"/>
    <type id="highway.secondary_link" priority="6" numLanes="1" speed="22.22" disallow="tram rail_urban rail rail_electric ship" oneway="0"/>
    <type id="highway.service" priority="2" numLanes="1" speed="5.56" allow="delivery bicycle pedestrian" oneway="0"/>
    <type id="highway.services" priority="1" numLanes="1" speed="8.33" disallow="tram rail_urban rail rail_electric ship" oneway="0"/>
    <type id="highway.stairs" priority="1" numLanes="1" speed="1.39" allow="pedestrian" oneway="1" width="2.00"/>
    <type id="highway.step" priority="1" numLanes="1" speed="1.39" allow="pedestrian" oneway="1" width="2.00"/>
    <type id="highway.steps" priority="1" numLanes="1" speed="1.39" allow="pedestrian" oneway="1" width="2.00"/>
    <type id="highway.tertiary" priority="6" numLanes="1" speed="22.22" disallow="tram rail_urban rail rail_electric ship" oneway="0"/>
    <type id="highway.tertiary_link" priority="5" numLanes="1" speed="22.22" disallow="tram rail_urban rail rail_electric ship" oneway="0"/>
    <type id="highway.track" priority="1" numLanes="1" speed="5.56" disallow="tram rail_urban rail rail_electric ship" oneway="0"/>
    <type id="highway.trunk" priority="11" numLanes="2" speed="27.78" disallow="tram rail_urban rail rail_electric bicycle pedestrian ship" oneway="0"/>
    <type id="highway.trunk_link" priority="10" numLanes="1" speed="22.22" disallow="tram rail_urban rail rail_electric bicycle pedestrian ship" oneway="0"/>
    <type id="highway.unclassified" priority="5" numLanes="1" speed="13.89" disallow="tram rail_urban rail rail_electric ship" oneway="0"/>
    <type id="highway.unsurfaced" priority="1" numLanes="1" speed="8.33" disallow="tram rail_urban rail rail_electric ship" oneway="0"/>
    <type id="railway.light_rail" priority="15" numLanes="1" speed="27.78" allow="rail_urban" oneway="1"/>
    <type id="railway.preserved" priority="15" numLanes="1" speed="27.78" allow="rail" oneway="1"/>
    <type id="railway.rail" priority="15" numLanes="1" speed="83.33" allow="rail rail_electric" oneway="1"/>
    <type id="railway.subway" priority="15" numLanes="1" speed="27.78" allow="rail_urban" oneway="1"/>
    <type id="railway.tram" priority="15" numLanes="1" speed="13.89" allow="tram" oneway="1"/>

    <edge id=":1151084798_0" function="internal">
        <lane id=":1151084798_0_0" index="0" disallow="tram rail_urban rail rail_electric ship" speed="27.78" length="0.10" shape="4201.54,866.44 4201.53,866.44"/>
        <lane id=":1151084798_0_1" index="1" disallow="tram rail_urban rail rail_electric ship" speed="27.78" length="0.10" shape="4198.28,865.88 4198.28,865.88"/>
    </edge>
    <edge id=":1151084800_0" function="internal">
        <lane id=":1151084800_0_0" index="0" disallow="tram rail_urban rail rail_electric ship" speed="27.78" length="0.10" shape="4313.95,746.66 4313.95,746.66"/>
        <lane id=":1151084800_0_1" index="1" disallow="tram rail_urban rail rail_electric ship" speed="27.78" length="0.10" shape="4314.53,743.41 4314.53,743.41"/>
        <lane id=":1151084800_0_2" index="2" disallow="tram rail_urban rail rail_electric ship" speed="27.78" length="0.10" shape="4315.10,740.16 4315.10,740.16"/>
        <lane id=":1151084800_0_3" index="3" disallow="tram rail_urban rail rail_electric ship" speed="27.78" length="0.10" shape="4315.68,736.91 4315.68,736.91"/>
    </edge>
    <edge id=":1151084823_0" function="internal">
        <lane id=":1151084823_0_0" index="0" disallow="tram rail_urban rail rail_electric ship" speed="25.00" length="7.32" shape="4288.54,746.88 4287.37,744.33 4286.33,742.47 4285.42,741.30 4284.66,740.83"/>
    </edge>
    <edge id=":1151084823_1" function="internal">
        <lane id=":1151084823_1_0" index="0" disallow="tram rail_urban rail rail_electric ship" speed="27.78" length="5.71" shape="4290.27,742.87 4288.55,742.69 4287.45,742.11 4286.36,741.39 4284.66,740.83"/>
        <lane id=":1151084823_1_1" index="1" disallow="tram rail_urban rail rail_electric ship" speed="27.78" length="5.71" shape="4290.10,739.57 4288.60,739.39 4287.66,738.80 4286.73,738.11 4285.25,737.58"/>
    </edge>
    <edge id=":1151084837_0" function="internal">
        <lane id=":1151084837_0_0" index="0" disallow="tram rail_urban rail rail_electric ship" speed="22.22" length="0.10" shape="4224.17,11.81 4224.17,11.81"/>
    </edge>
    <edge id=":1151084860_0" function="internal">
        <lane id=":1151084860_0_0" index="0" disallow="tram rail_urban rail rail_electric ship" speed="27.78" length="8.86" shape="4229.74,730.92 4227.74,730.78 4226.24,731.12 4225.23,731.93 4224.72,733.21"/>
        <lane id=":1151084860_0_1" index="1" disallow="tram rail_urban rail rail_electric ship" speed="27.78" length="8.86" shape="4230.29,727.67 4226.84,727.49 4224.22,728.26 4222.43,729.98 4221.47,732.65"/>
    </edge>
    <edge id=":1151084860_2" function="internal">
        <lane id=":1151084860_2_0" index="0" disallow="tram rail_urban rail rail_electric ship" speed="27.78" length="13.20" shape="4230.29,727.67 4226.44,727.54 4223.77,728.23 4221.11,728.91 4217.27,728.73"/>
    </edge>
    <edge id=":1151084860_3" function="internal">
        <lane id=":1151084860_3_0" index="0" disallow="tram rail_urban rail rail_electric ship" speed="27.78" length="9.74" shape="4227.96,724.06 4227.23,726.84 4226.35,728.64 4225.46,730.44 4224.72,733.21"/>
        <lane id=":1151084860_3_1" index="1" disallow="tram rail_urban rail rail_electric ship" speed="27.78" length="9.74" shape="4224.70,723.52 4223.97,726.29 4223.09,728.08 4222.21,729.88 4221.47,732.65"/>
    </edge>
    <edge id=":1151084860_5" function="internal">
        <lane id=":1151084860_5_0" index="0" disallow="tram rail_urban rail rail_electric ship" speed="27.78" length="5.02" shape="4221.45,722.97 4221.03,724.28 4220.29,725.14 4219.23,725.54 4217.86,725.49"/>
    </edge>
    <edge id=":1151084907_0" function="internal">
        <lane id=":1151084907_0_0" index="0" disallow="tram rail_urban rail rail_electric ship" speed="27.78" length="0.10" shape="4229.54,714.65 4229.54,714.65"/>
        <lane id=":1151084907_0_1" index="1" disallow="tram rail_urban rail rail_electric ship" speed="27.78" length="0.10" shape="4226.29,714.10 4226.29,714.10"/>
        <lane id=":1151084907_0_2" index="2" disallow="tram rail_urban rail rail_electric ship" speed="27.78" length="0.10" shape="4223.03,713.55 4223.03,713.55"/>
    </edge>
    <edge id=":1151084922_0" function="internal">
        <lane id=":1151084922_0_0" index="0" disallow="tram rail_urban rail rail_electric ship" speed="27.78" length="0.10" shape="4193.40,913.19 4193.40,913.19"/>
        <lane id=":1151084922_0_1" index="1" disallow="tram rail_urban rail rail_electric ship" speed="27.78" length="0.10" shape="4190.15,912.62 4190.15,912.62"/>
    </edge>
    <edge id=":1151084936_0" function="internal">
        <lane id=":1151084936_0_0" index="0" disallow="tram rail_urban rail rail_electric ship" speed="27.78" length="13.60" shape="4198.36,884.64 4195.99,898.23"/>
        <lane id=":1151084936_0_1" index="1" disallow="tram rail_urban rail rail_electric ship" speed="27.78" length="13.60" shape="4195.11,884.08 4192.81,897.28"/>
    </edge>
    <edge id=":1151084936_2" function="internal">
        <lane id=":1151084936_2_0" index="0" disallow="tram rail_urban rail rail_electric ship" speed="27.78" length="11.55" shape="4191.26,886.58 4194.28,887.82 4195.76,889.85 4197.15,892.17 4199.92,894.26"/>
        <lane id=":1151084936_2_1" index="1" disallow="tram rail_urban rail rail_electric ship" speed="27.78" length="11.55" shape="4190.75,889.85 4193.52,891.04 4194.81,893.02 4196.01,895.27 4198.54,897.26"/>
    </edge>
    <edge id=":1167986936_0" function="internal">
        <lane id=":1167986936_0_0" index="0" disallow="tram rail_urban rail rail_electric ship" speed="27.78" length="5.43" shape="4128.77,883.41 4129.49,883.30 4129.90,882.91 4130.29,882.41 4130.97,881.98"/>
        <lane id=":1167986936_0_1" index="1" disallow="tram rail_urban rail rail_electric ship" speed="27.78" length="5.43" shape="4128.43,886.69 4129.58,886.62 4130.30,886.22 4131.01,885.65 4132.10,885.08"/>
        <lane id=":1167986936_0_2" index="2" disallow="tram rail_urban rail rail_electric ship" speed="27.78" length="5.43" shape="4128.09,889.97 4129.67,889.94 4130.71,889.53 4131.72,888.89 4133.22,888.18"/>
        <lane id=":1167986936_0_3" index="3" disallow="tram rail_urban rail rail_electric ship" speed="27.78" length="5.43" shape="4127.75,893.25 4130.43,893.24 4132.21,892.65 4133.94,891.67 4136.47,890.52"/>
    </edge>
    <edge id=":1167986936_4" function="internal">
        <lane id=":1167986936_4_0" index="0" disallow="tram rail_urban rail rail_electric ship" speed="27.78" length="10.49" shape="4127.75,893.25 4130.56,892.52 4132.32,890.57 4134.01,888.90 4136.60,889.00"/>
    </edge>
    <edge id=":1167986936_5" function="internal">
        <lane id=":1167986936_5_0" index="0" disallow="tram rail_urban rail rail_electric ship" speed="20.84" length="8.23" shape="4130.40,896.75 4131.10,893.20 4131.81,890.58 4132.52,888.91 4133.22,888.18"/>
        <lane id=":1167986936_5_1" index="1" disallow="tram rail_urban rail rail_electric ship" speed="20.84" length="8.23" shape="4130.40,896.75 4131.06,894.75 4132.29,893.04 4134.10,891.63 4136.47,890.52"/>
        <lane id=":1167986936_5_2" index="2" disallow="tram rail_urban rail rail_electric ship" speed="20.84" length="8.23" shape="4130.40,896.75 4131.24,895.98 4132.99,895.20 4134.89,894.55 4136.17,894.14"/>
    </edge>
    <edge id=":1167986936_8" function="internal">
        <lane id=":1167986936_8_0" index="0" disallow="tram rail_urban rail rail_electric ship" speed="20.84" length="8.82" shape="4130.40,896.75 4131.19,894.09 4132.44,892.49 4134.14,891.96 4136.31,892.48"/>
    </edge>
    <edge id=":1167986941_0" function="internal">
        <lane id=":1167986941_0_0" index="0" disallow="tram rail_urban rail rail_electric ship" speed="27.78" length="9.11" shape="4195.96,898.43 4194.44,907.21"/>
        <lane id=":1167986941_0_1" index="1" disallow="tram rail_urban rail rail_electric ship" speed="27.78" length="9.11" shape="4192.78,897.48 4191.19,906.64"/>
    </edge>
    <edge id=":1167986941_2" function="internal">
        <lane id=":1167986941_2_0" index="0" disallow="tram rail_urban rail rail_electric ship" speed="27.78" length="7.67" shape="4189.22,899.81 4191.91,900.68 4193.68,902.20 4194.52,904.38 4194.44,907.21"/>
        <lane id=":1167986941_2_1" index="1" disallow="tram rail_urban rail rail_electric ship" speed="27.78" length="7.67" shape="4188.66,903.06 4189.96,903.48 4190.82,904.22 4191.23,905.27 4191.19,906.64"/>
    </edge>
    <edge id=":1168066094_0" function="internal">
        <lane id=":1168066094_0_0" index="0" disallow="tram rail_urban rail rail_electric ship" speed="13.89" length="6.20" shape="4001.36,696.78 4007.47,697.85"/>
        <lane id=":1168066094_0_1" index="1" disallow="tram rail_urban rail rail_electric ship" speed="13.89" length="6.20" shape="4000.79,700.03 4006.90,701.10"/>
    </edge>
    <edge id=":1168066094_2" function="internal">
        <lane id=":1168066094_2_0" index="0" disallow="tram rail_urban rail rail_electric ship" speed="13.89" length="5.01" shape="4000.79,700.03 4002.09,700.45 4002.94,701.19 4003.35,702.25 4003.32,703.63"/>
    </edge>
    <edge id=":1168066105_0" function="internal">
        <lane id=":1168066105_0_0" index="0" disallow="tram rail_urban rail rail_electric ship" speed="27.78" length="0.41" shape="4010.29,868.12 4010.49,868.14"/>
        <lane id=":1168066105_0_1" index="1" disallow="tram rail_urban rail rail_electric ship" speed="27.78" length="0.41" shape="4009.78,871.38 4010.40,871.43"/>
    </edge>
    <edge id=":1168183627_0" function="internal">
        <lane id=":1168183627_0_0" index="0" disallow="tram rail_urban rail rail_electric ship" speed="20.84" length="5.00" shape="4097.91,877.81 4099.28,877.85 4100.33,877.44 4101.07,876.59 4101.49,875.28"/>
    </edge>
    <edge id=":1168183627_1" function="internal">
        <lane id=":1168183627_1_0" index="0" disallow="tram rail_urban rail rail_electric ship" speed="27.78" length="6.12" shape="4097.91,877.81 4103.99,878.90"/>
        <lane id=":1168183627_1_1" index="1" disallow="tram rail_urban rail rail_electric ship" speed="27.78" length="6.12" shape="4097.34,881.06 4103.38,882.15"/>
        <lane id=":1168183627_1_2" index="2" disallow="tram rail_urban rail rail_electric ship" speed="27.78" length="6.12" shape="4096.78,884.31 4102.78,885.39"/>
        <lane id=":1168183627_1_3" index="3" disallow="tram rail_urban rail rail_electric ship" speed="27.78" length="6.12" shape="4096.22,887.56 4102.17,888.64"/>
    </edge>
    <edge id=":1168183665_0" function="internal">
        <lane id=":1168183665_0_0" index="0" disallow="tram rail_urban rail rail_electric ship" speed="22.22" length="6.21" shape="4036.93,801.42 4035.85,807.54"/>
    </edge>
    <edge id=":1168183665_1" function="internal">
        <lane id=":1168183665_1_0" index="0" disallow="tram rail_urban rail rail_electric ship" speed="18.05" length="5.01" shape="4036.93,801.42 4036.51,802.73 4035.77,803.58 4034.71,803.99 4033.34,803.94"/>
    </edge>
    <edge id=":1168183668_0" function="internal">
        <lane id=":1168183668_0_0" index="0" disallow="tram rail_urban rail rail_electric ship" speed="13.89" length="6.21" shape="4114.24,817.96 4108.12,816.90"/>
    </edge>
    <edge id=":1168183668_1" function="internal">
        <lane id=":1168183668_1_0" index="0" disallow="tram rail_urban rail rail_electric ship" speed="13.89" length="1.55" shape="4114.24,817.96 4112.94,817.54 4112.80,817.43"/>
    </edge>
    <edge id=":1168183668_4" function="internal">
        <lane id=":1168183668_4_0" index="0" speed="13.89" length="3.47" shape="4112.80,817.43 4112.08,816.80 4111.66,815.74 4111.70,814.37"/>
    </edge>
    <edge id=":1168183668_2" function="internal">
        <lane id=":1168183668_2_0" index="0" disallow="tram rail_urban rail rail_electric ship" speed="13.89" length="5.02" shape="4110.66,820.50 4110.70,819.12 4110.29,818.07 4109.43,817.33 4108.12,816.90"/>
    </edge>
    <edge id=":1168183668_3" function="internal">
        <lane id=":1168183668_3_0" index="0" disallow="tram rail_urban rail rail_electric ship" speed="13.89" length="6.21" shape="4110.66,820.50 4111.70,814.37"/>
    </edge>
    <edge id=":1168183682_0" function="internal">
        <lane id=":1168183682_0_0" index="0" disallow="tram rail_urban rail rail_electric ship" speed="25.00" length="3.64" shape="4267.39,902.66 4266.12,902.02 4265.38,900.67 4265.31,900.00"/>
    </edge>
    <edge id=":1168183682_2" function="internal">
        <lane id=":1168183682_2_0" index="0" speed="25.00" length="4.21" shape="4265.31,900.00 4265.16,898.60 4265.47,895.81"/>
    </edge>
    <edge id=":1168183682_1" function="internal">
        <lane id=":1168183682_1_0" index="0" disallow="tram rail_urban rail rail_electric ship" speed="25.00" length="7.04" shape="4261.26,901.11 4262.93,899.84 4264.12,898.90 4264.92,897.74 4265.47,895.81"/>
    </edge>
    <edge id=":1168183687_0" function="internal">
        <lane id=":1168183687_0_0" index="0" disallow="tram rail_urban rail rail_electric ship" speed="27.78" length="5.00" shape="4207.52,831.61 4206.67,836.54"/>
        <lane id=":1168183687_0_1" index="1" disallow="tram rail_urban rail rail_electric ship" speed="27.78" length="5.00" shape="4204.26,831.05 4203.42,835.98"/>
    </edge>
    <edge id=":1168183695_0" function="internal">
        <lane id=":1168183695_0_0" index="0" disallow="tram rail_urban rail rail_electric ship" speed="27.78" length="6.48" shape="4213.05,838.52 4213.62,836.72 4214.39,835.61 4215.16,834.49 4215.73,832.70"/>
        <lane id=":1168183695_0_1" index="1" disallow="tram rail_urban rail rail_electric ship" speed="27.78" length="6.48" shape="4216.30,839.09 4216.88,837.29 4217.64,836.17 4218.41,835.06 4218.99,833.26"/>
    </edge>
    <edge id=":1168183695_2" function="internal">
        <lane id=":1168183695_2_0" index="0" disallow="tram rail_urban rail rail_electric ship" speed="20.84" length="5.00" shape="4219.55,839.65 4219.98,838.35 4220.71,837.49 4221.77,837.08 4223.14,837.13"/>
    </edge>
    <edge id=":1168183724_0" function="internal">
        <lane id=":1168183724_0_0" index="0" disallow="tram rail_urban rail rail_electric ship" speed="13.89" length="5.04" shape="3990.87,796.27 3989.48,796.22 3988.43,796.63 3987.70,797.50 3987.31,798.83"/>
    </edge>
    <edge id=":1168183724_1" function="internal">
        <lane id=":1168183724_1_0" index="0" disallow="tram rail_urban rail rail_electric ship" speed="13.89" length="6.23" shape="3988.28,792.68 3987.31,798.83"/>
    </edge>
    <edge id=":1168183728_0" function="internal">
        <lane id=":1168183728_0_0" index="0" disallow="tram rail_urban rail rail_electric ship" speed="27.78" length="6.25" shape="4131.80,713.66 4125.67,712.58"/>
        <lane id=":1168183728_0_1" index="1" disallow="tram rail_urban rail rail_electric ship" speed="27.78" length="6.25" shape="4132.40,710.42 4126.21,709.33"/>
    </edge>
    <edge id=":1168183728_2" function="internal">
        <lane id=":1168183728_2_0" index="0" disallow="tram rail_urban rail rail_electric ship" speed="20.84" length="5.02" shape="4128.20,716.18 4128.24,714.80 4127.83,713.74 4126.97,713.00 4125.67,712.58"/>
    </edge>
    <edge id=":1168183731_0" function="internal">
        <lane id=":1168183731_0_0" index="0" disallow="tram rail_urban rail rail_electric ship" speed="27.78" length="7.20" shape="4253.57,905.24 4254.75,905.22 4256.10,904.79 4257.63,903.95 4259.32,902.70"/>
        <lane id=":1168183731_0_1" index="1" disallow="tram rail_urban rail rail_electric ship" speed="27.78" length="7.20" shape="4253.57,905.24 4256.50,905.65 4258.78,905.79 4260.42,905.66 4261.41,905.25"/>
    </edge>
    <edge id=":1168183731_2" function="internal">
        <lane id=":1168183731_2_0" index="0" disallow="tram rail_urban rail rail_electric ship" speed="27.78" length="8.23" shape="4253.57,905.24 4256.17,905.82 4257.84,906.61 4259.33,907.81 4261.34,909.63"/>
        <lane id=":1168183731_2_1" index="1" disallow="tram rail_urban rail rail_electric ship" speed="27.78" length="8.23" shape="4253.02,908.49 4255.09,908.98 4256.41,909.65 4257.57,910.64 4259.18,912.12"/>
    </edge>
    <edge id=":1168183735_0" function="internal">
        <lane id=":1168183735_0_0" index="0" disallow="tram rail_urban rail rail_electric ship" speed="13.89" length="6.20" shape="4144.81,820.10 4143.77,826.21"/>
    </edge>
    <edge id=":1168183735_1" function="internal">
        <lane id=":1168183735_1_0" index="0" disallow="tram rail_urban rail rail_electric ship" speed="13.89" length="5.00" shape="4144.81,820.10 4144.39,821.41 4143.65,822.27 4142.60,822.67 4141.23,822.63"/>
    </edge>
    <edge id=":1168183745_0" function="internal">
        <lane id=":1168183745_0_0" index="0" disallow="tram rail_urban rail rail_electric ship" speed="18.05" length="5.00" shape="4088.23,813.46 4086.92,813.04 4086.07,812.30 4085.66,811.25 4085.70,809.88"/>
    </edge>
    <edge id=":1168183745_1" function="internal">
        <lane id=":1168183745_1_0" index="0" disallow="tram rail_urban rail rail_electric ship" speed="22.22" length="6.19" shape="4084.64,815.98 4085.70,809.88"/>
    </edge>
    <edge id=":1168183751_0" function="internal">
        <lane id=":1168183751_0_0" index="0" disallow="tram rail_urban rail rail_electric ship" speed="13.89" length="6.22" shape="4271.43,845.51 4277.56,846.58"/>
    </edge>
    <edge id=":1168183751_1" function="internal">
        <lane id=":1168183751_1_0" index="0" disallow="tram rail_urban rail rail_electric ship" speed="22.22" length="6.22" shape="4273.94,849.10 4275.05,842.98"/>
    </edge>
    <edge id=":1182677910_0" function="internal">
        <lane id=":1182677910_0_0" index="0" disallow="tram rail_urban rail rail_electric ship" speed="27.78" length="1.30" shape="4011.30,859.56 4011.86,859.68 4012.25,859.80 4012.60,859.99 4013.09,860.31"/>
        <lane id=":1182677910_0_1" index="1" disallow="tram rail_urban rail rail_electric ship" speed="27.78" length="1.30" shape="4010.64,862.80 4010.83,862.84 4010.95,862.88 4011.07,862.94 4011.23,863.04"/>
    </edge>
    <edge id=":1442088606_0" function="internal">
        <lane id=":1442088606_0_0" index="0" disallow="tram rail_urban rail rail_electric ship" speed="27.78" length="9.50" shape="4160.88,894.74 4170.22,896.43"/>
        <lane id=":1442088606_0_1" index="1" disallow="tram rail_urban rail rail_electric ship" speed="27.78" length="9.50" shape="4160.29,897.98 4169.63,899.68"/>
    </edge>
    <edge id=":1442088606_2" function="internal">
        <lane id=":1442088606_2_0" index="0" allow="delivery bicycle pedestrian" speed="16.67" length="7.86" shape="4160.29,897.98 4163.00,898.67 4164.86,899.61 4165.88,900.78 4166.04,902.20"/>
    </edge>
    <edge id=":1442088606_3" function="internal">
        <lane id=":1442088606_3_0" index="0" disallow="tram rail_urban rail rail_electric ship" speed="16.67" length="7.88" shape="4162.79,901.64 4163.42,900.35 4164.76,899.60 4166.84,899.37 4169.63,899.68"/>
    </edge>
    <edge id=":1442088606_4" function="internal">
        <lane id=":1442088606_4_0" index="0" allow="delivery bicycle pedestrian" speed="5.56" length="4.82" shape="4162.79,901.64 4163.81,900.56 4164.69,900.29 4165.44,900.84 4166.04,902.20"/>
    </edge>
    <edge id=":1442088610_0" function="internal">
        <lane id=":1442088610_0_0" index="0" allow="delivery bicycle pedestrian" speed="5.56" length="4.82" shape="4145.03,1026.20 4144.01,1027.28 4143.13,1027.55 4142.38,1027.01 4141.78,1025.65"/>
    </edge>
    <edge id=":1636685665_0" function="internal">
        <lane id=":1636685665_0_0" index="0" disallow="tram rail_urban rail rail_electric ship" speed="13.89" length="0.10" shape="4178.62,610.55 4178.62,610.55"/>
    </edge>
    <edge id=":2908468223_0" function="internal">
        <lane id=":2908468223_0_0" index="0" disallow="tram rail_urban rail rail_electric ship" speed="22.22" length="0.10" shape="4312.26,750.92 4312.26,750.92"/>
    </edge>
    <edge id=":308473190_0" function="internal">
        <lane id=":308473190_0_0" index="0" disallow="tram rail_urban rail rail_electric ship" speed="25.00" length="7.76" shape="4060.96,701.11 4058.15,700.83 4056.07,701.03 4054.72,701.71 4054.10,702.88"/>
    </edge>
    <edge id=":308473190_1" function="internal">
        <lane id=":308473190_1_0" index="0" disallow="tram rail_urban rail rail_electric ship" speed="27.78" length="13.23" shape="4060.96,701.11 4057.04,700.98 4054.32,701.67 4051.60,702.35 4047.68,702.17"/>
        <lane id=":308473190_1_1" index="1" disallow="tram rail_urban rail rail_electric ship" speed="27.78" length="13.23" shape="4061.50,697.85 4057.59,697.73 4054.88,698.42 4052.17,699.10 4048.26,698.92"/>
        <lane id=":308473190_1_2" index="2" disallow="tram rail_urban rail rail_electric ship" speed="27.78" length="13.23" shape="4061.50,697.85 4048.85,695.67"/>
    </edge>
    <edge id=":308473190_4" function="internal">
        <lane id=":308473190_4_0" index="0" disallow="tram rail_urban rail rail_electric ship" speed="22.22" length="13.12" shape="4059.53,691.05 4058.33,694.91 4056.72,697.53 4055.16,699.86 4054.10,702.88"/>
    </edge>
    <edge id=":308473190_5" function="internal">
        <lane id=":308473190_5_0" index="0" disallow="tram rail_urban rail rail_electric ship" speed="25.00" length="7.67" shape="4056.28,690.48 4055.40,693.18 4053.86,694.94 4051.68,695.78 4048.85,695.67"/>
        <lane id=":308473190_5_1" index="1" disallow="tram rail_urban rail rail_electric ship" speed="25.00" length="7.67" shape="4053.02,689.91 4052.60,691.22 4051.86,692.07 4050.80,692.48 4049.43,692.43"/>
    </edge>
    <edge id=":308473191_0" function="internal">
        <lane id=":308473191_0_0" index="0" disallow="tram rail_urban rail rail_electric ship" speed="27.78" length="6.21" shape="4106.18,709.34 4100.07,708.24"/>
        <lane id=":308473191_0_1" index="1" disallow="tram rail_urban rail rail_electric ship" speed="27.78" length="6.21" shape="4106.76,706.09 4100.65,704.99"/>
    </edge>
    <edge id=":308473191_2" function="internal">
        <lane id=":308473191_2_0" index="0" disallow="tram rail_urban rail rail_electric ship" speed="25.00" length="5.02" shape="4106.76,706.09 4105.47,705.66 4104.61,704.91 4104.20,703.85 4104.24,702.47"/>
    </edge>
    <edge id=":308473191_3" function="internal">
        <lane id=":308473191_3_0" index="0" disallow="tram rail_urban rail rail_electric ship" speed="25.00" length="5.02" shape="4102.55,711.86 4102.62,710.48 4102.23,709.42 4101.38,708.68 4100.07,708.24"/>
    </edge>
    <edge id=":308473191_4" function="internal">
        <lane id=":308473191_4_0" index="0" disallow="tram rail_urban rail rail_electric ship" speed="22.22" length="9.55" shape="4102.55,711.86 4104.24,702.47"/>
    </edge>
    <edge id=":308473192_0" function="internal">
        <lane id=":308473192_0_0" index="0" disallow="tram rail_urban rail rail_electric ship" speed="20.84" length="3.99" shape="4164.86,719.57 4163.50,719.45 4162.48,719.60 4161.82,720.05 4161.51,720.78"/>
    </edge>
    <edge id=":308473192_1" function="internal">
        <lane id=":308473192_1_0" index="0" disallow="tram rail_urban rail rail_electric ship" speed="27.78" length="6.20" shape="4164.86,719.57 4158.75,718.51"/>
        <lane id=":308473192_1_1" index="1" disallow="tram rail_urban rail rail_electric ship" speed="27.78" length="6.20" shape="4165.43,716.32 4159.32,715.25"/>
    </edge>
    <edge id=":308473193_0" function="internal">
        <lane id=":308473193_0_0" index="0" disallow="tram rail_urban rail rail_electric ship" speed="22.22" length="5.35" shape="4290.89,755.67 4291.11,754.12 4291.06,753.03 4290.73,751.97 4290.11,750.51"/>
    </edge>
    <edge id=":308473193_1" function="internal">
        <lane id=":308473193_1_0" index="0" disallow="tram rail_urban rail rail_electric ship" speed="22.22" length="4.99" shape="4290.89,755.67 4291.25,754.58 4291.92,753.63 4292.89,752.83 4294.16,752.18"/>
    </edge>
    <edge id=":308473424_0" function="internal">
        <lane id=":308473424_0_0" index="0" disallow="tram rail_urban rail rail_electric ship" speed="27.78" length="11.44" shape="4241.19,732.93 4229.94,730.96"/>
        <lane id=":308473424_0_1" index="1" disallow="tram rail_urban rail rail_electric ship" speed="27.78" length="11.44" shape="4241.78,729.69 4230.49,727.70"/>
    </edge>
    <edge id=":308473424_2" function="internal">
        <lane id=":308473424_2_0" index="0" disallow="tram rail_urban rail rail_electric ship" speed="27.78" length="4.83" shape="4241.78,729.69 4239.05,729.00 4237.40,728.17"/>
        <lane id=":308473424_2_1" index="1" disallow="tram rail_urban rail rail_electric ship" speed="27.78" length="4.83" shape="4241.78,729.69 4240.48,729.25 4239.63,728.51 4239.23,727.45 4239.28,726.08"/>
    </edge>
    <edge id=":308473424_6" function="internal">