<?xml version="1.0" encoding="UTF-8"?>

<!-- generated on Fri Sep 16 12:55:57 2016 by SUMO polyconvert Version 0.27.1
<?xml version="1.0" encoding="UTF-8"?>

<configuration xmlns:xsi="http://www.w3.org/2001/XMLSchema-instance" xsi:noNamespaceSchemaLocation="http://sumo.dlr.de/xsd/polyconvertConfiguration.xsd">

    <input>
        <net-file value="MK-map-tl.net.xml"/>
        <osm-files value="map.osm"/>
        <type-file value="MK-typemap.xml"/>
    </input>

    <output>
        <output-file value="map.poly.xml"/>
    </output>

    <processing>
        <poi-layer-offset value="5"/>
    </processing>

</configuration>
-->

<additional xmlns:xsi="http://www.w3.org/2001/XMLSchema-instance" xsi:noNamespaceSchemaLocation="http://sumo.dlr.de/xsd/additional_file.xsd">
    <location netOffset="-204165.52,-2470171.21" convBoundary="0.00,0.00,4467.48,3817.21" origBoundary="114.127797,22.312663,114.171686,22.346384" projParameter="+proj=utm +zone=50 +ellps=WGS84 +datum=WGS84 +units=m +no_defs"/>

    <poly id="100507099" type="amenity" color="237,199,199" fill="0" layer="-1.00" shape="4004.11,698.94 3987.77,795.72 3978.99,854.73"/>
    <poly id="102411837" type="tourism" color="207,245,201" fill="1" layer="-2.00" shape="4027.49,954.72 4031.71,929.98 3994.36,921.25 3980.45,899.34 3984.79,873.88 4025.41,881.99 4021.81,899.85 4045.53,904.58 4049.14,886.73 4048.80,888.69 4067.99,892.06 4057.12,961.56 4027.49,954.72"/>
    <poly id="112427969" type="building" color="255,230,230" fill="1" layer="-1.00" shape="4220.47,624.29 4221.14,621.02 4221.79,617.99 4237.80,620.53 4240.91,601.27 4261.45,605.14 4258.09,623.95 4275.14,626.84 4274.45,630.51 4273.89,633.81 4257.10,630.62 4251.86,658.51 4240.33,719.91 4296.32,729.33 4298.50,716.65 4300.96,716.98 4303.01,717.26 4299.65,735.42 4277.50,731.42 4272.78,734.46 4271.33,742.80 4278.13,743.85 4277.70,746.22 4277.22,748.98 4248.63,744.10 4249.03,741.61 4249.46,739.00 4260.88,740.71 4262.37,732.00 4239.17,727.86 4220.09,831.77 4273.46,841.19 4267.71,870.66 4265.91,870.29 4264.08,869.90 4268.94,845.07 4252.70,842.17 4251.72,846.24 4261.86,847.99 4261.70,849.21 4261.44,850.54 4232.28,845.33 4232.48,844.05 4232.77,842.64 4242.92,844.45 4243.71,840.54 4219.22,836.03 4214.63,860.10 4195.09,856.91 4200.09,829.64 4178.75,825.84 4178.20,829.43 4194.41,832.16 4194.00,834.16 4193.70,835.84 4155.91,829.39 4156.24,827.51 4156.52,825.62 4170.22,827.85 4171.15,822.24 4200.60,827.16 4218.92,724.40 4199.25,720.78 4197.32,731.69 4209.36,733.69 4209.02,735.29 4208.67,736.94 4176.69,731.21 4177.04,729.56 4177.33,728.12 4188.57,730.06 4190.64,719.41 4155.49,713.10 4139.66,710.26 4141.25,701.43 4144.78,702.02 4148.21,702.59 4146.88,709.04 4191.01,717.08 4191.54,714.86 4172.92,711.61 4173.15,710.20 4173.34,708.93 4220.47,716.54 4236.37,627.29 4220.47,624.29"/>
    <poly id="185564130" type="commercial" color="209,209,204" fill="1" layer="-3.00" shape="4182.15,541.30 4168.91,537.90 4171.63,523.02 4145.43,518.44 4130.50,604.31 4113.46,689.70 4118.73,697.08 4148.73,702.36 4157.76,698.18 4184.76,541.90 4182.15,541.30"/>
    <poly id="215667071" type="building" color="255,230,230" fill="1" layer="-1.00" shape="4263.78,853.61 4224.65,846.81 4218.41,882.24 4221.28,887.25 4256.76,893.42 4263.78,853.61"/>
    <poly id="215667072" type="building" color="255,230,230" fill="1" layer="-1.00" shape="4219.82,876.13 4221.94,862.57 4230.81,854.81 4249.20,857.78 4256.21,868.56 4253.83,881.97 4244.38,890.57 4227.39,887.71 4219.82,876.13"/>
    <poly id="316843031" type="building" color="255,230,230" fill="1" layer="-1.00" shape="4052.48,858.56 4064.85,860.71 4066.39,851.94 4068.59,852.32 4070.53,841.23 4064.92,840.26 4064.49,842.65 4055.60,841.11 4053.91,850.76 4057.74,851.42 4057.57,852.45 4053.67,851.78 4052.82,856.64 4052.48,858.56"/>
    <poly id="316843056" type="building" color="255,230,230" fill="1" layer="-1.00" shape="4059.26,850.50 4061.87,850.99 4062.35,848.51 4059.74,848.02 4059.26,850.50"/>
    <poly id="316843064" type="commercial" color="209,209,204" fill="1" layer="-3.00" shape="4182.26,759.49 4165.31,756.33 4164.19,756.12 4162.11,767.17 4163.22,767.37 4167.65,768.20 4178.20,770.17 4180.18,770.54 4182.26,759.49"/>
    <poly id="316843066" type="commercial" color="209,209,204" fill="1" layer="-3.00" shape="4262.33,753.03 4280.45,756.20 4265.78,838.44 4227.45,831.74 4232.84,801.28 4253.06,804.81 4262.33,753.03"/>
    <poly id="316843067" type="residential" color="235,235,227" fill="1" layer="-3.00" shape="4172.26,755.43 4182.68,757.38 4186.11,739.27 4184.40,738.95 4167.68,735.83 4165.21,748.88 4163.31,748.53 4162.35,753.58 4172.26,755.43"/>
    <poly id="316843081" type="commercial" color="209,209,204" fill="1" layer="-3.00" shape="4131.93,850.69 4129.21,866.89 4126.36,869.82 4106.84,866.43 4109.90,847.24 4131.93,850.69"/>
    <poly id="316843099" type="residential" color="235,235,227" fill="1" layer="-3.00" shape="4110.37,844.33 4113.95,823.26 4129.71,825.88 4126.14,846.95 4110.37,844.33"/>
    <poly id="316843116" type="residential" color="235,235,227" fill="1" layer="-3.00" shape="4136.03,794.83 4140.13,795.55 4141.72,795.83 4142.57,791.07 4143.48,791.23 4144.54,785.28 4138.85,784.28 4132.76,783.21 4130.85,793.92 4136.03,794.83"/>
    <poly id="316843133" type="residential" color="235,235,227" fill="1" layer="-3.00" shape="4207.22,779.35 4183.22,775.21 4181.33,785.99 4196.01,788.51 4205.33,790.12 4207.22,779.35"/>
    <poly id="316843140" type="residential" color="235,235,227" fill="1" layer="-3.00" shape="4081.09,778.26 4074.41,777.10 4065.24,775.51 4068.37,757.63 4077.68,759.25 4084.23,760.38 4081.09,778.26"/>
    <poly id="316843167" type="unknown" color="51,128,255" fill="1" layer="-1.00" shape="4129.84,797.40 4119.05,795.60 4116.36,811.44 4127.14,813.25 4129.84,797.40"/>
    <poly id="316843170" type="residential" color="235,235,227" fill="1" layer="-3.00" shape="4145.30,860.13 4145.62,858.28 4143.67,857.98 4144.96,850.53 4168.25,854.52 4166.64,863.81 4151.08,861.14 4145.30,860.13"/>
    <poly id="316843171" type="residential" color="235,235,227" fill="1" layer="-3.00" shape="4307.47,813.78 4310.51,796.18 4292.36,793.09 4289.33,810.69 4307.47,813.78"/>
    <poly id="316843182" type="residential" color="235,235,227" fill="1" layer="-3.00" shape="4052.99,832.18 4056.22,813.68 4044.58,811.67 4041.35,830.17 4052.99,832.18"/>
    <poly id="316843185" type="commercial" color="209,209,204" fill="1" layer="-3.00" shape="4139.01,747.54 4140.03,741.81 4141.77,732.08 4151.68,733.82 4149.94,743.55 4148.93,749.28 4139.01,747.54"/>
    <poly id="316843186" type="residential" color="235,235,227" fill="1" layer="-3.00" shape="4098.02,866.65 4100.16,854.60 4100.50,852.56 4094.57,851.59 4084.74,849.86 4083.67,855.76 4083.40,857.43 4082.49,862.59 4082.90,863.51 4083.77,864.20 4089.66,865.21 4091.10,865.46 4098.02,866.65"/>
    <poly id="316843191" type="commercial" color="209,209,204" fill="1" layer="-3.00" shape="4202.85,653.82 4226.10,657.67 4223.63,672.33 4216.72,713.82 4193.47,709.96 4200.37,668.47 4202.85,653.82"/>
    <poly id="316843192" type="commercial" color="209,209,204" fill="1" layer="-3.00" shape="4211.72,743.77 4207.33,767.47 4185.18,763.48 4189.57,739.78 4211.72,743.77"/>
    <poly id="316843206" type="building" color="255,230,230" fill="1" layer="-1.00" shape="4122.75,775.23 4124.64,764.03 4130.92,765.08 4130.43,768.03 4132.82,768.43 4131.97,773.52 4129.33,773.08 4128.79,776.23 4122.75,775.23"/>
    <poly id="316843207" type="building" color="255,230,230" fill="1" layer="-1.00" shape="4119.87,791.78 4121.77,780.59 4128.05,781.63 4127.54,784.58 4129.94,784.98 4129.08,790.07 4126.44,789.63 4125.91,792.79 4119.87,791.78"/>
    <poly id="316843212" type="commercial" color="209,209,204" fill="1" layer="-3.00" shape="4237.44,774.85 4232.82,800.82 4250.48,803.93 4255.10,777.94 4237.44,774.85"/>
    <poly id="316843213" type="residential" color="235,235,227" fill="1" layer="-3.00" shape="4280.27,861.64 4286.19,862.68 4298.56,864.88 4298.89,863.05 4300.07,856.44 4295.51,855.62 4295.71,854.52 4288.81,853.30 4288.61,854.40 4281.78,853.20 4280.27,861.64"/>
    <poly id="316843219" type="commercial" color="209,209,204" fill="1" layer="-3.00" shape="4067.69,741.95 4057.12,740.13 4052.17,768.53 4062.74,770.35 4067.69,741.95"/>
    <poly id="316843227" type="residential" color="235,235,227" fill="1" layer="-3.00" shape="4060.44,802.63 4074.52,804.97 4077.61,786.71 4063.53,784.36 4060.44,802.63"/>
    <poly id="316843235" type="residential" color="235,235,227" fill="1" layer="-3.00" shape="4063.59,784.16 4063.79,782.97 4064.79,777.18 4065.04,775.80 4069.61,776.59 4076.63,777.80 4079.04,778.16 4077.59,786.53 4075.18,786.15 4068.14,784.94 4063.59,784.16"/>
    <poly id="316843245" type="commercial" color="209,209,204" fill="1" layer="-3.00" shape="4173.22,844.07 4174.81,834.73 4194.88,838.08 4193.64,845.46 4193.31,847.44 4186.39,846.27 4173.22,844.07"/>
    <poly id="316843254" type="residential" color="235,235,227" fill="1" layer="-3.00" shape="4050.79,777.21 4061.22,778.98 4057.28,801.91 4046.85,800.14 4050.79,777.21"/>
    <poly id="316843256" type="residential" color="235,235,227" fill="1" layer="-3.00" shape="4058.07,828.11 4056.62,827.85 4058.95,814.23 4060.62,814.51 4060.89,812.98 4064.78,813.64 4074.10,815.22 4074.72,815.63 4074.73,816.91 4072.39,830.54 4070.95,830.31 4058.07,828.11"/>
    <poly id="316843263" type="residential" color="235,235,227" fill="1" layer="-3.00" shape="4205.21,778.83 4183.23,774.90 4185.27,763.64 4207.24,767.57 4205.21,778.83"/>
    <poly id="316843271" type="commercial" color="209,209,204" fill="1" layer="-3.00" shape="4171.97,706.23 4173.87,694.88 4175.06,687.73 4193.15,690.72 4192.51,694.58 4190.06,709.21 4171.97,706.23"/>
    <poly id="316843272" type="commercial" color="209,209,204" fill="1" layer="-3.00" shape="4101.41,847.44 4100.54,852.17 4086.47,849.72 4087.34,844.99 4089.08,835.14 4089.91,830.33 4103.98,832.78 4102.70,840.15 4101.41,847.44"/>
    <poly id="316843282" type="residential" color="235,235,227" fill="1" layer="-3.00" shape="4093.35,694.98 4080.02,692.54 4080.47,690.11 4079.07,689.86 4082.04,673.79 4089.58,675.16 4098.92,676.87 4097.15,686.42 4095.94,692.95 4095.16,694.38 4094.22,694.84 4093.35,694.98"/>
    <poly id="316843288" type="residential" color="235,235,227" fill="1" layer="-3.00" shape="4187.21,880.90 4167.58,877.32 4169.41,867.01 4189.03,870.59 4187.21,880.90"/>
    <poly id="316843300" type="commercial" color="209,209,204" fill="1" layer="-3.00" shape="4199.20,813.89 4197.71,822.43 4197.07,826.16 4193.36,825.52 4175.14,822.40 4177.27,810.13 4199.20,813.89"/>
    <poly id="316843310" type="commercial" color="209,209,204" fill="1" layer="-3.00" shape="4255.29,777.75 4259.80,752.59 4241.91,749.37 4237.40,774.53 4255.29,777.75"/>
    <poly id="316843324" type="commercial" color="209,209,204" fill="1" layer="-3.00" shape="4170.02,862.94 4189.87,866.40 4193.13,847.87 4173.29,844.42 4170.02,862.94"/>
    <poly id="316843328" type="commercial" color="209,209,204" fill="1" layer="-3.00" shape="4055.64,738.26 4057.47,738.55 4057.20,740.19 4067.77,741.83 4069.70,729.85 4071.68,717.69 4061.10,715.95 4059.81,716.21 4059.18,717.11 4055.64,738.26"/>
    <poly id="316843328#1" type="tourism" color="207,245,201" fill="1" layer="-2.00" shape="4055.64,738.26 4057.47,738.55 4057.20,740.19 4067.77,741.83 4069.70,729.85 4071.68,717.69 4061.10,715.95 4059.81,716.21 4059.18,717.11 4055.64,738.26"/>
    <poly id="316843337" type="residential" color="235,235,227" fill="1" layer="-3.00" shape="4142.81,780.44 4144.38,780.71 4147.38,763.45 4145.81,763.18 4138.95,762.00 4136.51,761.58 4133.51,778.84 4135.94,779.26 4142.81,780.44"/>
    <poly id="316843357" type="residential" color="235,235,227" fill="1" layer="-3.00" shape="4146.29,842.82 4148.56,829.65 4158.53,831.35 4158.76,829.99 4169.25,831.76 4169.03,833.05 4172.03,833.57 4169.75,846.81 4152.79,843.93 4146.29,842.82"/>
    <poly id="316843379" type="amenity" color="237,199,199" fill="1" layer="-1.00" shape="4263.78,853.61 4256.76,893.42 4221.28,887.25 4217.63,886.62 4218.41,882.24 4224.65,846.81 4263.78,853.61"/>
    <poly id="316843389" type="residential" color="235,235,227" fill="1" layer="-3.00" shape="4119.73,791.99 4125.37,759.88 4134.24,761.38 4128.61,793.49 4119.73,791.99"/>
    <poly id="316843391" type="commercial" color="209,209,204" fill="1" layer="-3.00" shape="4284.31,725.11 4249.17,719.22 4246.71,718.82 4247.03,716.85 4248.47,708.43 4250.59,695.91 4268.73,698.96 4267.48,706.36 4276.18,707.82 4288.60,709.91 4287.70,715.20 4286.31,723.41 4285.97,725.39 4284.31,725.11"/>
    <poly id="316843396" type="residential" color="235,235,227" fill="1" layer="-3.00" shape="4143.31,758.45 4137.19,757.39 4138.89,747.73 4144.96,748.79 4150.96,749.83 4149.26,759.49 4143.31,758.45"/>
    <poly id="316843403" type="residential" color="235,235,227" fill="1" layer="-3.00" shape="4201.19,813.98 4177.16,809.91 4181.24,786.23 4205.26,790.30 4201.19,813.98"/>
    <poly id="316843427" type="residential" color="235,235,227" fill="1" layer="-3.00" shape="4052.82,856.64 4051.66,856.49 4054.86,838.52 4064.92,840.26 4070.53,841.23 4068.59,852.32 4067.37,859.55 4066.91,860.37 4066.12,860.92 4064.85,860.71 4052.48,858.56 4052.82,856.64"/>
    <poly id="316843441" type="building" color="255,230,230" fill="1" layer="-1.00" shape="4195.44,823.62 4196.21,819.73 4197.10,818.83 4197.91,813.75 4180.77,811.03 4179.02,821.16 4180.49,821.38 4180.34,822.34 4190.53,823.94 4191.72,823.07 4195.44,823.62"/>
    <poly id="316843442" type="building" color="255,230,230" fill="1" layer="-1.00" shape="4181.84,761.76 4180.52,768.67 4180.18,770.54 4178.20,770.17 4167.65,768.20 4163.22,767.37 4165.31,756.33 4169.75,757.14 4180.34,759.13 4182.26,759.49 4181.84,761.76"/>
    <poly id="316843443" type="building" color="255,230,230" fill="1" layer="-1.00" shape="4151.38,859.40 4151.08,861.14 4145.30,860.13 4145.62,858.28 4143.67,857.98 4144.96,850.53 4152.73,851.87 4152.40,853.72 4167.85,856.37 4166.86,862.05 4151.38,859.40"/>
    <poly id="316843445" type="building" color="255,230,230" fill="1" layer="-1.00" shape="4275.58,891.08 4277.69,878.87 4278.82,872.05 4296.59,875.39 4295.42,882.11 4292.76,897.57 4292.52,898.71 4277.77,896.11 4276.20,894.93 4275.56,893.14 4275.58,891.08"/>
    <poly id="316843450" type="building" color="255,230,230" fill="1" layer="-1.00" shape="4076.63,777.80 4069.61,776.59 4065.04,775.80 4064.79,777.18 4063.79,782.97 4063.59,784.16 4068.14,784.94 4075.18,786.15 4077.59,786.53 4079.04,778.16 4076.63,777.80"/>
    <poly id="316843456" type="building" color="255,230,230" fill="1" layer="-1.00" shape="4280.27,861.64 4286.19,862.68 4286.34,861.85 4289.44,862.40 4289.61,861.42 4294.33,862.25 4295.51,855.62 4295.71,854.52 4288.81,853.30 4288.61,854.40 4281.78,853.20 4280.27,861.64"/>
    <poly id="316843460" type="building" color="255,230,230" fill="1" layer="-1.00" shape="4126.54,845.72 4132.32,846.75 4133.97,847.06 4135.67,837.57 4133.62,837.19 4134.05,834.76 4136.09,835.17 4137.30,828.38 4137.09,826.91 4136.02,825.78 4130.19,824.76 4126.54,845.72"/>
    <poly id="316843461" type="building" color="255,230,230" fill="1" layer="-1.00" shape="4060.89,812.98 4064.78,813.64 4064.52,815.18 4073.30,816.67 4074.73,816.91 4072.39,830.54 4070.95,830.31 4062.48,828.86 4062.99,825.92 4058.78,825.20 4060.62,814.51 4060.89,812.98"/>
    <poly id="316843462" type="building" color="255,230,230" fill="1" layer="-1.00" shape="4194.34,824.91 4195.16,825.43 4195.75,825.55 4196.50,825.22 4197.04,824.50 4196.97,824.00 4196.61,823.20 4197.71,822.43 4199.20,813.89 4177.27,810.13 4175.14,822.40 4193.36,825.52 4194.34,824.91"/>
    <poly id="316843463" type="building" color="255,230,230" fill="1" layer="-1.00" shape="4152.93,819.70 4163.73,821.45 4164.05,820.06 4167.76,820.72 4168.36,817.17 4164.58,816.51 4165.65,810.67 4153.47,808.71 4152.76,813.10 4152.19,813.00 4151.44,817.54 4151.72,818.94 4152.93,819.70"/>
    <poly id="316843510" type="building" color="255,230,230" fill="1" layer="-1.00" shape="4279.28,702.95 4279.09,704.09 4274.42,703.26 4275.70,696.18 4280.15,696.98 4279.96,698.01 4282.00,698.37 4282.32,696.59 4292.44,698.40 4290.88,707.03 4280.67,705.21 4281.03,703.27 4279.28,702.95"/>
    <poly id="316843525" type="building" color="255,230,230" fill="1" layer="-1.00" shape="4205.33,790.12 4207.22,779.35 4197.80,777.72 4197.35,780.29 4194.87,779.86 4195.13,778.39 4183.26,776.34 4181.79,784.79 4193.80,786.86 4194.02,785.61 4196.45,786.03 4196.01,788.51 4205.33,790.12"/>
    <poly id="316843526" type="building" color="255,230,230" fill="1" layer="-1.00" shape="4187.02,763.81 4187.42,761.61 4185.59,761.28 4187.70,749.91 4197.46,751.64 4197.89,751.77 4198.23,752.19 4198.00,753.24 4208.95,755.28 4209.29,755.57 4209.47,755.95 4207.33,767.47 4187.02,763.81"/>
    <poly id="316843527" type="building" color="255,230,230" fill="1" layer="-1.00" shape="4158.87,778.49 4160.48,778.77 4160.74,777.28 4159.14,777.00 4159.78,773.36 4171.33,775.37 4171.03,777.07 4172.96,777.40 4172.01,782.70 4170.10,782.37 4169.79,784.13 4158.24,782.12 4158.87,778.49"/>
    <poly id="316843529" type="building" color="255,230,230" fill="1" layer="-1.00" shape="4163.55,853.05 4158.27,852.14 4158.47,851.05 4151.36,849.83 4151.07,851.46 4144.97,850.43 4146.26,842.97 4152.39,844.03 4152.10,845.72 4159.21,846.93 4159.39,845.83 4164.65,846.74 4163.55,853.05"/>
    <poly id="316843530" type="building" color="255,230,230" fill="1" layer="-1.00" shape="4289.07,864.20 4293.42,865.02 4292.77,868.45 4289.90,867.92 4289.66,869.14 4292.57,869.69 4291.89,873.25 4287.53,872.43 4287.32,873.50 4276.82,871.55 4278.74,861.36 4289.24,863.31 4289.07,864.20"/>
    <poly id="316843531" type="building" color="255,230,230" fill="1" layer="-1.00" shape="4283.87,827.69 4286.87,810.44 4295.18,811.86 4294.91,813.40 4301.78,814.58 4300.98,819.17 4298.63,818.76 4297.79,823.62 4300.21,824.04 4299.35,828.96 4292.48,827.79 4292.25,829.13 4283.87,827.69"/>
    <poly id="316843533" type="building" color="255,230,230" fill="1" layer="-1.00" shape="4289.89,792.29 4299.06,793.95 4299.39,792.12 4304.45,793.04 4304.77,791.31 4306.39,791.61 4306.95,788.59 4305.27,788.29 4305.60,786.52 4300.41,785.59 4300.70,784.02 4291.70,782.39 4289.89,792.29"/>
    <poly id="316843534" type="building" color="255,230,230" fill="1" layer="-1.00" shape="4295.36,810.31 4296.14,805.89 4292.77,805.30 4293.97,798.57 4297.20,799.14 4297.90,795.18 4301.69,795.84 4301.47,797.04 4303.36,797.37 4301.15,809.85 4299.46,809.55 4299.20,810.99 4295.36,810.31"/>
    <poly id="316843563" type="building" color="255,230,230" fill="1" layer="-1.00" shape="4036.36,848.50 4038.03,838.90 4048.31,840.68 4048.16,841.88 4050.10,842.22 4049.75,844.17 4050.80,844.35 4050.23,847.55 4049.12,847.36 4048.79,849.25 4046.75,848.89 4046.50,850.25 4036.36,848.50"/>
    <poly id="316843564" type="building" color="255,230,230" fill="1" layer="-1.00" shape="4048.58,790.19 4047.88,794.23 4053.71,795.22 4053.09,798.87 4057.04,799.54 4059.86,783.21 4055.42,782.47 4054.77,786.26 4049.40,785.34 4048.76,789.05 4052.06,789.61 4051.86,790.74 4048.58,790.19"/>
    <poly id="316843565" type="building" color="255,230,230" fill="1" layer="-1.00" shape="4058.15,778.24 4058.56,775.80 4061.03,776.21 4061.63,772.70 4059.11,772.28 4059.49,770.07 4050.70,768.60 4050.20,771.55 4052.36,771.92 4052.02,773.93 4049.86,773.57 4049.32,776.76 4058.15,778.24"/>
    <poly id="316843566" type="building" color="255,230,230" fill="1" layer="-1.00" shape="4066.76,802.72 4069.62,786.49 4074.84,787.40 4074.44,789.70 4078.05,790.32 4077.23,794.96 4075.64,794.68 4075.31,796.59 4076.84,796.86 4076.04,801.42 4072.46,800.79 4071.95,803.63 4066.76,802.72"/>
    <poly id="316843567" type="building" color="255,230,230" fill="1" layer="-1.00" shape="4072.61,759.91 4072.23,762.03 4070.35,761.72 4068.55,771.96 4070.53,772.30 4070.13,774.61 4074.71,775.41 4074.41,777.10 4081.09,778.26 4084.23,760.38 4077.68,759.25 4077.42,760.74 4072.61,759.91"/>
    <poly id="316843568" type="building" color="255,230,230" fill="1" layer="-1.00" shape="4084.18,750.38 4074.48,748.70 4074.37,749.32 4071.40,748.81 4070.92,751.53 4073.27,751.93 4072.86,754.26 4070.50,753.85 4070.01,756.70 4073.07,757.23 4072.90,758.18 4082.52,759.85 4084.18,750.38"/>
    <poly id="316843578" type="building" color="255,230,230" fill="1" layer="-1.00" shape="4146.29,842.82 4152.79,843.93 4153.04,842.47 4166.92,844.84 4169.03,833.05 4169.25,831.76 4158.76,829.99 4158.53,831.35 4148.56,829.65 4147.63,835.06 4149.30,835.35 4148.92,837.52 4147.25,837.23 4146.29,842.82"/>
    <poly id="316843579" type="building" color="255,230,230" fill="1" layer="-1.00" shape="4138.43,786.60 4138.85,784.28 4144.54,785.28 4143.48,791.23 4142.57,791.07 4140.98,790.79 4140.13,795.55 4136.03,794.83 4136.21,793.76 4134.50,793.46 4134.83,791.56 4131.73,791.02 4132.70,785.59 4138.43,786.60"/>
    <poly id="316843580" type="building" color="255,230,230" fill="1" layer="-1.00" shape="4295.51,855.62 4295.71,854.52 4288.81,853.30 4288.61,854.40 4281.78,853.20 4280.27,861.64 4286.19,862.68 4286.34,861.85 4289.44,862.40 4289.61,861.42 4294.33,862.25 4298.89,863.05 4300.07,856.44 4295.51,855.62"/>
    <poly id="316843581" type="building" color="255,230,230" fill="1" layer="-1.00" shape="4080.02,692.54 4080.47,690.11 4082.62,678.05 4088.88,679.17 4089.58,675.16 4098.92,676.87 4098.08,680.97 4095.87,680.58 4095.64,681.88 4097.84,682.27 4097.15,686.42 4094.95,686.04 4093.35,694.98 4080.02,692.54"/>
    <poly id="316843587" type="building" color="255,230,230" fill="1" layer="-1.00" shape="4250.59,695.91 4248.47,708.43 4247.03,716.85 4247.08,718.11 4248.04,718.88 4249.17,719.22 4284.31,725.11 4285.55,724.32 4286.31,723.41 4287.70,715.20 4288.60,709.91 4276.18,707.82 4267.48,706.36 4268.73,698.96 4250.59,695.91"/>
    <poly id="316843592" type="building" color="255,230,230" fill="1" layer="-1.00" shape="4182.17,864.61 4175.15,863.39 4176.16,857.73 4171.29,856.89 4173.30,845.56 4185.10,847.63 4184.87,848.95 4186.88,849.30 4186.65,850.52 4188.43,850.83 4186.29,862.87 4184.51,862.56 4184.29,863.74 4182.39,863.41 4182.17,864.61"/>
    <poly id="316843604" type="building" color="255,230,230" fill="1" layer="-1.00" shape="4131.16,815.92 4131.53,813.65 4133.56,814.02 4133.18,816.27 4138.26,817.13 4139.64,816.65 4140.00,814.92 4141.59,805.98 4140.21,805.81 4137.57,805.28 4138.38,800.98 4132.48,800.18 4131.36,806.51 4128.55,806.08 4126.98,815.23 4131.16,815.92"/>
    <poly id="316843611" type="building" color="255,230,230" fill="1" layer="-1.00" shape="4059.18,717.11 4059.81,716.21 4061.10,715.95 4071.68,717.69 4069.70,729.85 4065.81,729.23 4065.06,733.86 4067.97,734.33 4067.03,740.10 4057.47,738.55 4055.64,738.26 4058.44,721.98 4059.65,722.17 4060.05,719.72 4058.79,719.52 4059.18,717.11"/>
    <poly id="316843636" type="building" color="255,230,230" fill="1" layer="-1.00" shape="4185.51,809.20 4180.06,808.27 4183.42,788.75 4188.77,789.66 4188.03,793.95 4189.76,794.24 4190.50,789.91 4196.25,790.89 4196.61,788.83 4205.26,790.30 4201.19,813.98 4192.34,812.49 4192.70,810.39 4187.23,809.46 4187.97,805.13 4186.27,804.84 4185.51,809.20"/>
    <poly id="316843637" type="building" color="255,230,230" fill="1" layer="-1.00" shape="4083.40,857.43 4082.49,862.59 4082.90,863.51 4083.77,864.20 4089.66,865.21 4089.98,863.50 4091.44,863.73 4091.10,865.46 4098.02,866.65 4100.16,854.60 4094.23,853.59 4094.57,851.59 4084.74,849.86 4083.67,855.76 4085.34,856.01 4085.04,857.70 4083.40,857.43"/>
    <poly id="316843638" type="building" color="255,230,230" fill="1" layer="-1.00" shape="4240.47,758.11 4241.65,751.35 4251.15,752.98 4252.57,754.91 4251.91,758.73 4256.27,759.49 4257.91,761.95 4256.80,768.58 4254.42,770.35 4250.03,769.61 4249.37,773.43 4247.40,774.75 4237.76,773.06 4238.94,766.21 4240.85,766.58 4242.29,758.42 4240.47,758.11"/>
    <poly id="316843647" type="building" color="255,230,230" fill="1" layer="-1.00" shape="4277.25,768.77 4267.95,820.18 4257.38,829.26 4239.25,826.09 4231.55,813.46 4233.65,801.65 4245.79,803.77 4244.56,810.68 4256.97,812.85 4258.21,805.88 4254.21,805.17 4255.68,796.88 4259.54,797.56 4263.55,774.95 4258.96,774.15 4262.48,754.36 4265.56,754.89 4277.25,768.77"/>
    <poly id="316843660" type="building" color="255,230,230" fill="1" layer="-1.00" shape="4091.67,804.94 4092.96,805.13 4092.38,808.26 4092.49,808.87 4093.04,809.15 4099.21,810.08 4099.39,808.97 4101.82,809.33 4101.64,810.58 4107.64,811.43 4108.91,803.75 4105.46,803.28 4106.81,795.01 4103.60,794.48 4103.30,796.27 4101.07,795.90 4101.44,794.14 4093.50,792.82 4091.67,804.94"/>
    <poly id="316843664" type="building" color="255,230,230" fill="1" layer="-1.00" shape="4240.66,798.18 4240.01,801.68 4244.56,802.52 4245.68,796.42 4250.90,797.38 4253.02,785.96 4247.83,785.00 4249.12,778.04 4244.11,777.11 4243.46,780.55 4240.37,779.99 4240.04,782.48 4238.31,785.04 4237.35,786.77 4236.60,789.40 4236.67,791.46 4237.14,793.24 4237.87,794.95 4237.45,797.67 4240.66,798.18"/>
    <poly id="316843675" type="building" color="255,230,230" fill="1" layer="-1.00" shape="4107.94,859.97 4109.46,851.06 4116.89,852.32 4117.41,849.24 4117.57,848.85 4118.08,848.69 4124.76,849.82 4125.10,850.10 4125.15,850.51 4124.62,853.59 4131.15,854.56 4129.63,863.47 4123.08,862.49 4122.11,868.20 4121.87,868.63 4121.43,868.76 4114.82,867.65 4114.48,867.36 4114.38,866.87 4115.34,861.21 4107.94,859.97"/>
    <poly id="316843676" type="building" color="255,230,230" fill="1" layer="-1.00" shape="4302.32,832.79 4300.40,843.98 4300.04,846.04 4292.15,844.70 4292.57,842.69 4290.15,842.37 4289.76,844.34 4283.31,843.21 4282.58,842.71 4282.01,841.86 4281.64,841.07 4282.32,837.02 4284.48,837.39 4284.82,835.31 4282.65,834.94 4283.88,828.00 4294.00,829.72 4293.18,834.17 4298.36,835.09 4298.82,832.14 4302.32,832.79"/>
    <poly id="316843680" type="building" color="255,230,230" fill="1" layer="-1.00" shape="4249.17,719.22 4248.04,718.88 4247.08,718.11 4247.03,716.85 4248.47,708.43 4248.80,707.55 4249.59,707.01 4250.72,706.86 4258.75,708.21 4259.20,706.15 4260.19,705.27 4261.11,705.26 4267.48,706.36 4276.18,707.82 4276.86,708.30 4277.14,709.28 4276.68,711.22 4286.12,712.80 4287.13,713.44 4287.61,714.28 4287.70,715.20 4286.31,723.41 4285.55,724.32 4284.31,725.11 4249.17,719.22"/>
    <poly id="316843757" type="building" color="255,230,230" fill="1" layer="-1.00" shape="4207.24,767.57 4205.21,778.83 4183.23,774.90 4185.27,763.64 4207.24,767.57"/>
    <poly id="316843758" type="building" color="255,230,230" fill="1" layer="-1.00" shape="4189.87,866.40 4193.13,847.87 4173.29,844.42 4170.02,862.94 4189.87,866.40"/>
    <poly id="316843762" type="building" color="255,230,230" fill="1" layer="-1.00" shape="4145.90,864.93 4146.67,860.45 4166.41,863.81 4165.64,868.29 4145.90,864.93"/>
    <poly id="316843763" type="building" color="255,230,230" fill="1" layer="-1.00" shape="4145.46,785.21 4146.17,781.14 4135.07,779.22 4134.37,783.30 4145.46,785.21"/>
    <poly id="316843764" type="building" color="255,230,230" fill="1" layer="-1.00" shape="4135.94,779.26 4138.95,762.00 4145.81,763.18 4142.81,780.44 4135.94,779.26"/>
    <poly id="316843765" type="building" color="255,230,230" fill="1" layer="-1.00" shape="4149.03,763.47 4149.68,759.76 4138.59,757.83 4137.94,761.53 4149.03,763.47"/>
    <poly id="316843766" type="building" color="255,230,230" fill="1" layer="-1.00" shape="4149.94,743.55 4151.68,733.82 4141.77,732.08 4140.03,741.81 4149.94,743.55"/>
    <poly id="316843767" type="building" color="255,230,230" fill="1" layer="-1.00" shape="4139.95,729.29 4135.61,754.25 4126.50,752.69 4130.85,727.72 4139.95,729.29"/>
    <poly id="316843768" type="building" color="255,230,230" fill="1" layer="-1.00" shape="4187.21,880.90 4189.03,870.59 4169.41,867.01 4167.58,877.32 4187.21,880.90"/>
    <poly id="316843769" type="building" color="255,230,230" fill="1" layer="-1.00" shape="4126.14,846.95 4110.37,844.33 4113.95,823.26 4129.71,825.88 4126.14,846.95"/>
    <poly id="316843770" type="building" color="255,230,230" fill="1" layer="-1.00" shape="4104.90,827.62 4094.71,825.90 4095.64,820.41 4105.84,822.11 4104.90,827.62"/>
    <poly id="316843771" type="building" color="255,230,230" fill="1" layer="-1.00" shape="4232.82,800.82 4250.48,803.93 4255.10,777.94 4237.44,774.85 4232.82,800.82"/>
    <poly id="316843772" type="building" color="255,230,230" fill="1" layer="-1.00" shape="4237.40,774.53 4255.29,777.75 4259.80,752.59 4241.91,749.37 4237.40,774.53"/>
    <poly id="316843774" type="building" color="255,230,230" fill="1" layer="-1.00" shape="4289.33,810.69 4292.36,793.09 4310.51,796.18 4307.47,813.78 4289.33,810.69"/>
    <poly id="316843778" type="building" color="255,230,230" fill="1" layer="-1.00" shape="4193.47,709.96 4200.37,668.47 4223.63,672.33 4216.72,713.82 4193.47,709.96"/>
    <poly id="316843792" type="building" color="255,230,230" fill="1" layer="-1.00" shape="4046.85,800.14 4050.79,777.21 4061.22,778.98 4057.28,801.91 4046.85,800.14"/>
    <poly id="316843793" type="building" color="255,230,230" fill="1" layer="-1.00" shape="4052.17,768.53 4055.17,751.29 4065.74,753.11 4062.74,770.35 4052.17,768.53"/>
    <poly id="316843794" type="building" color="255,230,230" fill="1" layer="-1.00" shape="4074.52,804.97 4077.61,786.71 4063.53,784.36 4060.44,802.63 4074.52,804.97"/>
    <poly id="316843795" type="building" color="255,230,230" fill="1" layer="-1.00" shape="4097.70,765.69 4099.19,756.97 4112.29,759.18 4110.81,767.90 4097.70,765.69"/>
    <poly id="316843796" type="building" color="255,230,230" fill="1" layer="-1.00" shape="4100.83,747.78 4102.37,739.13 4115.46,741.42 4113.92,750.07 4100.83,747.78"/>
    <poly id="316843797" type="building" color="255,230,230" fill="1" layer="-1.00" shape="4102.41,738.95 4103.87,730.30 4116.98,732.52 4115.52,741.17 4102.41,738.95"/>