<?xml version="1.0"?>
<!-- generated on 2017-05-30 23:23:25.531035 by $Id: randomTrips.py 19495 2015-12-02 12:36:28Z behrisch $
  options: -n MK-map-tl.net.xml -r 528-150-MK-map.rou.xml -e 1200 -p 10 -L
-->
<trips>
    <trip id="0" depart="0.00" from="102441821#2" to="101166561#0" />
    <trip id="1" depart="10.00" from="101166561#3" to="101176351#1" />
    <trip id="2" depart="20.00" from="101176351#2" to="99517996#2" />
    <trip id="3" depart="30.00" from="102441821#1" to="250788646#2" />
    <trip id="4" depart="40.00" from="101176346#2" to="102443799#5" />
    <trip id="5" depart="50.00" from="4793007#2" to="250788646#1" />
    <trip id="6" depart="60.00" from="101317729#1" to="250788646#0" />
    <trip id="7" depart="70.00" from="101183511" to="246481869#1" />
    <trip id="8" depart="80.00" from="102443799#7" to="246482271#1" />
    <trip id="9" depart="90.00" from="441107658#4" to="250787626#2" />
    <trip id="10" depart="100.00" from="101176351#2" to="250787626#1" />
    <trip id="11" depart="110.00" from="102441821#2" to="102554241#1" />
    <trip id="12" depart="120.00" from="250788646#3" to="101176351#3" />
    <trip id="13" depart="130.00" from="102443799#1" to="311890775#1" />
    <trip id="14" depart="140.00" from="246483350#3" to="311890781#1" />
    <trip id="15" depart="150.00" from="246483350#3" to="441107658#4" />
    <trip id="16" depart="160.00" from="246481869#0" to="102441821#3" />
    <trip id="17" depart="170.00" from="311890775#0" to="101317729#0" />
    <trip id="18" depart="180.00" from="263839971#6" to="106436298#1" />
    <trip id="19" depart="190.00" from="99517996#1" to="250788817" />
    <trip id="20" depart="200.00" from="246483350#3" to="251338678#0" />
    <trip id="21" depart="210.00" from="263840206#2" to="150771591#0" />
    <trip id="22" depart="220.00" from="100507099#1" to="101183532#1" />
    <trip id="23" depart="230.00" from="246483350#1" to="246483350#3" />
    <trip id="24" depart="240.00" from="101183525#3" to="102443799#3" />
    <trip id="25" depart="250.00" from="246483350#1" to="150771591#1" />
    <trip id="26" depart="260.00" from="102441821#0" to="311890775#2" />
    <trip id="27" depart="270.00" from="150771591#3" to="101176346#2" />
    <trip id="28" depart="280.00" from="250788646#2" to="99517996#2" />
    <trip id="29" depart="290.00" from="150771643#2" to="263839971#6" />
    <trip id="30" depart="300.00" from="150771591#2" to="101166558#0" />
    <trip id="31" depart="310.00" from="246482271#1" to="101166561#0" />
    <trip id="32" depart="320.00" from="246482271#1" to="99517996#1" />
    <trip id="33" depart="330.00" from="102443799#6" to="102443799#7" />
    <trip id="34" depart="340.00" from="66348958#0" to="106436298#2" />
    <trip id="35" depart="350.00" from="99517996#0" to="101183517#1" />
    <trip id="36" depart="360.00" from="246483350#3" to="99517996#1" />
    <trip id="37" depart="370.00" from="101176351#3" to="101176351#1" />
    <trip id="38" depart="380.00" from="246483350#1" to="263840206#2" />
    <trip id="39" depart="390.00" from="102441821#0" to="251338678#0" />
    <trip id="40" depart="400.00" from="101166561#0" to="246483350#2" />
    <trip id="41" depart="410.00" from="102441821#1" to="246481869#0" />
    <trip id="42" depart="420.00" from="311890775#3" to="101176346#1" />
    <trip id="43" depart="430.00" from="102554241#2" to="246482271#2" />
    <trip id="44" depart="440.00" from="101166558#2" to="150771643#2" />
    <trip id="45" depart="450.00" from="246481869#2" to="106436298#2" />
    <trip id="46" depart="460.00" from="441107658#4" to="102443799#3" />
    <trip id="47" depart="470.00" from="250788646#0" to="250788646#3" />
    <trip id="48" depart="480.00" from="311890775#1" to="441107643#3" />
    <trip id="49" depart="490.00" from="101166561#1" to="101317729#2" />
    <trip id="50" depart="500.00" from="101166558#2" to="311890781#2" />
    <trip id="51" depart="510.00" from="246483031" to="250788646#4" />
    <trip id="52" depart="520.00" from="250788646#1" to="101183525#3" />
    <trip id="53" depart="530.00" from="106436298#1" to="441107658#0" />
    <trip id="54" depart="540.00" from="250788646#1" to="101166558#1" />
    <trip id="55" depart="550.00" from="102443799#0" to="250787626#3" />
    <trip id="56" depart="560.00" from="101166558#0" to="101166561#2" />
    <trip id="57" depart="570.00" from="311890775#4" to="251337837#0" />
    <trip id="58" depart="580.00" from="441107643#1" to="150771591#1" />
    <trip id="59" depart="590.00" from="250788646#2" to="99517996#2" />
    <trip id="60" depart="600.00" from="311890781#0" to="101183524#0" />
    <trip id="61" depart="610.00" from="279592046#0" to="250788646#3" />
    <trip id="62" depart="620.00" from="251337837#1" to="101317729#1" />
    <trip id="63" depart="630.00" from="99517996#0" to="263840206#2" />
    <trip id="64" depart="640.00" from="101166556" to="102441821#3" />
    <trip id="65" depart="650.00" from="101176351#1" to="246483350#2" />
    <trip id="66" depart="660.00" from="246482271#1" to="311890778#1" />
    <trip id="67" depart="670.00" from="99517996#0" to="263839971#8" />
    <trip id="68" depart="680.00" from="246481869#1" to="246481869#1" />
    <trip id="69" depart="690.00" from="101183517#0" to="101183525#3" />
    <trip id="70" depart="700.00" from="101183532#1" to="101176351#1" />
    <trip id="71" depart="710.00" from="101166558#2" to="246483350#1" />
    <trip id="72" depart="720.00" from="311890781#1" to="279592046#1" />
    <trip id="73" depart="730.00" from="246483350#2" to="99517996#2" />
    <trip id="74" depart="740.00" from="150771591#2" to="4793007#2" />
    <trip id="75" depart="750.00" from="246482271#1" to="106436298#1" />
    <trip id="76" depart="760.00" from="263840206#1" to="102441821#4" />
    <trip id="77" depart="770.00" from="101166558#1" to="106436298#2" />
    <trip id="78" depart="780.00" from="101166553#2" to="101166558#2" />
    <trip id="79" depart="790.00" from="250788646#0" to="101166561#2" />
    <trip id="80" depart="800.00" from="101183517#1" to="101183525#2" />
    <trip id="81" depart="810.00" from="101317729#0" to="101166558#1" />
    <trip id="82" depart="820.00" from="102443799#2" to="246482271#2" />
    <trip id="83" depart="830.00" from="101166561#1" to="441107658#2" />
    <trip id="84" depart="840.00" from="263840206#1" to="311890775#4" />
    <trip id="85" depart="850.00" from="311890775#3" to="246483031" />
    <trip id="86" depart="860.00" from="150792162#2" to="101183525#1" />
    <trip id="87" depart="870.00" from="106436298#0" to="102443799#6" />
    <trip id="88" depart="880.00" from="101166558#1" to="311890778#1" />
    <trip id="89" depart="890.00" from="101166561#1" to="250788817" />
    <trip id="90" depart="900.00" from="263839971#6" to="435248953#0" />
    <trip id="91" depart="910.00" from="263840206#0" to="250788817" />
    <trip id="92" depart="920.00" from="101176346#0" to="102443799#3" />
    <trip id="93" depart="930.00" from="102443799#4" to="99517996#0" />
    <trip id="94" depart="940.00" from="246483350#3" to="102441821#3" />
    <trip id="95" depart="950.00" from="263839971#5" to="101317729#1" />
    <trip id="96" depart="960.00" from="101166558#3" to="250788646#3" />
    <trip id="97" depart="970.00" from="101183517#0" to="311890775#3" />
    <trip id="98" depart="980.00" from="102443799#8" to="311890775#2" />
    <trip id="99" depart="990.00" from="246483350#0" to="311890775#1" />
    <trip id="100" depart="1000.00" from="263840206#2" to="250788646#4" />
    <trip id="101" depart="1010.00" from="441107643#1" to="106436298#0" />
    <trip id="102" depart="1020.00" from="101183524#1" to="251338678#1" />
    <trip id="103" depart="1030.00" from="101166561#2" to="101183525#1" />
    <trip id="104" depart="1040.00" from="150771591#0" to="106436298#0" />
    <trip id="105" depart="1050.00" from="101176351#3" to="251338678#1" />
    <trip id="106" depart="1060.00" from="246483350#0" to="4793007#1" />
    <trip id="107" depart="1070.00" from="101176346#2" to="102441821#3" />
    <trip id="108" depart="1080.00" from="102443799#1" to="246481869#1" />
    <trip id="109" depart="1090.00" from="246483350#0" to="102554241#1" />
    <trip id="110" depart="1100.00" from="101183518#1" to="102443799#4" />
    <trip id="111" depart="1110.00" from="101183518#0" to="250788646#0" />
    <trip id="112" depart="1120.00" from="250787626#2" to="101166561#3" />
    <trip id="113" depart="1130.00" from="441107643#3" to="311890781#2" />
    <trip id="114" depart="1140.00" from="150771591#2" to="102443799#5" />
    <trip id="115" depart="1150.00" from="101183532#2" to="441107643#1" />
    <trip id="116" depart="1160.00" from="246483350#0" to="246483350#0" />
    <trip id="117" depart="1170.00" from="250788646#4" to="102554241#1" />
    <trip id="118" depart="1180.00" from="101166553#2" to="263839971#5" />
    <trip id="119" depart="1190.00" from="246481869#0" to="246482271#0" />
</trips>
